5

O 1.1142994678 0.2889955739 0.2262223191
H 0.6912666486 -0.5888112346 0.1801143548
H 2.0531243301 0.1382785552 0.3388949336
K -1.4832253034 0.8153863616 -0.0843220081
Cl -1.3754651431 -1.4710459262 -0.0609095992
5

O 1.1044057114 0.2923198939 0.225028287
H 0.6674143215 -0.5809061097 0.177244049
H 2.0404206537 0.1246021594 0.3374560007
K -1.468387075 0.8662445269 -0.0827994372
Cl -1.3438536116 -1.5194571406 -0.0569288995
5

O 1.0907997101 0.2907890969 0.2233952064
H 0.6477642613 -0.581639292 0.1749315766
H 2.0262602032 0.1209816417 0.3358014969
K -1.449546904 0.9189928475 -0.0808028433
Cl -1.3152772707 -1.5663209641 -0.0533254365
5

O 1.0801089426 0.2931820807 0.2221089998
H 0.6237355237 -0.5748364769 0.1720523022
H 2.0123647371 0.1061458649 0.3342236513
K -1.4364054722 0.9712400852 -0.0794873045
Cl -1.2798037312 -1.612928224 -0.0488976488
5

O 1.0639450923 0.2895975417 0.2201928185
H 0.6075451953 -0.5807348766 0.1701994351
H 1.9969265107 0.1069068034 0.3323751126
K -1.4165633324 1.0254418627 -0.0773816457
Cl -1.2518534658 -1.6584080013 -0.0453857203
5

O 1.049687848 0.2884548825 0.218518355
H 0.5875555692 -0.5815400234 0.1677788805
H 1.9815445345 0.1002178805 0.3306009163
K -1.3998472393 1.0793371956 -0.0756491234
Cl -1.2189407124 -1.7036666052 -0.0412490282
5

O 1.0346136836 0.2869194355 0.2167598952
H 0.5681535708 -0.5833805743 0.1654539974
H 1.9655713049 0.0943313957 0.3287327382
K -1.382469703 1.1335456943 -0.0738431007
Cl -1.1858688564 -1.7486126212 -0.03710353
5

O 1.0188865169 0.2850875248 0.2149347855
H 0.5487667643 -0.5859694037 0.1632041813
H 1.9490632421 0.0887734184 0.3267544746
K -1.3646072457 1.1880910835 -0.0719881229
Cl -1.1521092776 -1.793179293 -0.0329053183
5

O 1.0024680455 0.2830096563 0.2130364568
H 0.5293802567 -0.5892654715 0.1609614967
H 1.931970673 0.0835048865 0.3246979255
K -1.3461670259 1.2429508608 -0.0700681676
Cl -1.1176519493 -1.8373966021 -0.0286277112
5

O 0.985343565 0.2807138128 0.2110473884
H 0.5099816392 -0.5932286608 0.1586979335
H 1.9142704865 0.0785043249 0.3225855924
K -1.3270929071 1.2981040721 -0.0680703597
Cl -1.0825027835 -1.881290219 -0.0242605544
5

O 0.9675009279 0.2782092682 0.208953318
H 0.4906972391 -0.5979023462 0.1564139593
H 1.8959710931 0.0738540237 0.320434744
K -1.3073667136 1.3535347258 -0.0659877447
Cl -1.0468025465 -1.9248923415 -0.0198142765
5

O 0.9492225604 0.2749591316 0.2067896687
H 0.471609314 -0.603468906 0.1541146281
H 1.8774685141 0.0697762997 0.318294218
K -1.2876647169 1.4094676383 -0.0639005231
Cl -1.0106356716 -1.9679308336 -0.0152979916
5

O 0.9297482664 0.2719629146 0.2044687776
H 0.4520699863 -0.6095031962 0.1517376875
H 1.8577348104 0.0655498269 0.3160314456
K -1.2664024896 1.4655818113 -0.0616228637
Cl -0.9731505735 -2.0107880266 -0.0106150469
5

O 0.9092702115 0.2688286698 0.2020326463
H 0.4321969484 -0.6161839581 0.1494183075
H 1.837061349 0.0613591982 0.3136075613
K -1.2440934597 1.5220533872 -0.059234622
Cl -0.9344350492 -2.0532539671 -0.0058238931
5

O 0.8877784157 0.2653825066 0.1994916103
H 0.4124127146 -0.6237152074 0.1472142892
H 1.8155931018 0.0577835471 0.311027249
K -1.2207074511 1.5788098482 -0.0567356936
Cl -0.895076781 -2.0954573645 -0.0009974547
5

O 0.8652342054 0.2617377185 0.1968611134
H 0.3924317516 -0.6318973092 0.1449810095
H 1.7931892382 0.0544433126 0.3083152647
K -1.19617621 1.6358710524 -0.0541093397
Cl -0.8546789851 -2.1373514442 0.0039519522
5

O 0.8415644531 0.2578599416 0.1941163977
H 0.3722819843 -0.6407955187 0.1426481625
H 1.7697871492 0.0513797233 0.3055099659
K -1.1704385661 1.6932675878 -0.05133423
Cl -0.8131950204 -2.178908404 0.009059704
5

O 0.7925805521 0.2719292641 0.2568188712
H 0.3767209744 -0.6413241851 0.0871937542
H 1.7271042551 0.1004161784 0.3752847605
K -1.2366396384 1.6900452034 0.1329971187
Cl -0.6597661432 -2.2382631309 -0.2522945045
5

O 0.7672882855 0.2673707401 0.2529693159
H 0.3548508118 -0.6502349774 0.0836794851
H 1.7019123039 0.0951141966 0.3704286097
K -1.2120458763 1.7480868441 0.1433047868
Cl -0.6120055249 -2.2775334735 -0.2503821973
5

O 0.7397041139 0.2623149463 0.2486736399
H 0.3338781432 -0.6614685875 0.0794276309
H 1.6748550012 0.0920479097 0.3658686918
K -1.1847905192 1.8065578384 0.1541507298
Cl -0.5636467391 -2.3166487768 -0.2481206923
5

O 0.7109043087 0.2567982687 0.2440386629
H 0.3128492519 -0.6730670636 0.0751087595
H 1.6466735714 0.0890870701 0.3612340055
K -1.1563188109 1.865385996 0.1652453459
Cl -0.5141083211 -2.3554009412 -0.2456267737
5

O 0.6805612273 0.2510146097 0.2390657569
H 0.2915481614 -0.6851437013 0.0706701602
H 1.6170429621 0.0864392165 0.3564876914
K -1.1259915448 1.9244561896 0.1766629101
Cl -0.4631608061 -2.3939629845 -0.2428865185
5

O 0.6484012288 0.2448466183 0.2337499603
H 0.2697768633 -0.6978127552 0.066075497
H 1.5857088933 0.0840748001 0.3515549498
K -1.0935086975 1.9838916692 0.1884488025
Cl -0.4103782879 -2.4321970023 -0.2398292094
5

O 0.6143597752 0.2383149511 0.2281149633
H 0.2474247262 -0.7109364469 0.0613343903
H 1.5525916902 0.0819052537 0.3463905166
K -1.0587578056 2.0436562823 0.2006058271
Cl -0.355618386 -2.4701367101 -0.2364456973
5

O 0.5785108101 0.2314492042 0.2224428043
H 0.2264125856 -0.7249502453 0.0565836458
H 1.517985898 0.0810712584 0.3413493055
K -1.0225304615 2.1034257887 0.2128793953
Cl -0.3003788321 -2.508192676 -0.2332551507
5

O 0.5409804984 0.224578871 0.2157774554
H 0.2034093399 -0.7382722609 0.0510119957
H 1.4812167712 0.0784821269 0.3368468812
K -0.9840331107 2.1636405631 0.2256376624
Cl -0.2415734987 -2.5456259701 -0.2292739946
