5

O 1.1521546743 0.2134030669 0.2318022028
H 0.5237773268 -0.5456394557 0.1604082059
H 2.0287300679 -0.1545302321 0.3380522575
Rb -1.6818100552 0.7649794201 -0.1088457215
F -1.0228520138 -1.0954094689 -0.0214169446
5

O 1.1277648402 0.2163603818 0.2288787491
H 0.5001454732 -0.5507223696 0.1575997487
H 2.0065623102 -0.1457160897 0.3353740985
Rb -1.6496783437 0.8135437496 -0.1052431608
F -0.9847942799 -1.1506623418 -0.0166094353
5

O 1.1043143348 0.2177573238 0.2260615821
H 0.4782996107 -0.5593268488 0.1550179023
H 1.9865811492 -0.1351029207 0.3329599451
Rb -1.621556924 0.8630390443 -0.1021192322
F -0.9476381706 -1.2035632684 -0.0119201972
5

O 1.0813540835 0.218767649 0.223292052
H 0.457501247 -0.5693287134 0.1525795688
H 1.9671513781 -0.1244924833 0.3306153593
Rb -1.595712985 0.9129015812 -0.0992659141
F -0.9102937236 -1.2550447034 -0.0072210658
5

O 1.0586351011 0.2193764384 0.220549447
H 0.4373925016 -0.5808448153 0.1502485837
H 1.9480486602 -0.1137817993 0.328303499
Rb -1.5716312362 0.9632285835 -0.0966254002
F -0.8724450267 -1.305175077 -0.0024761294
5

O 1.0359924159 0.2196469274 0.2178343291
H 0.4177422346 -0.5939053512 0.1479565061
H 1.929076881 -0.1029438413 0.3260050308
Rb -1.5488823927 1.0140663646 -0.094148621
F -0.8339291388 -1.3540607692 0.0023527552
5

O 1.0136580374 0.2193374206 0.2151655644
H 0.3990930676 -0.6089111231 0.1458190969
H 1.9106154997 -0.091791097 0.3237487063
Rb -1.5281508005 1.0656355391 -0.0919201658
F -0.7952158041 -1.4014674094 0.0071867983
5

O 0.9908086558 0.2190866243 0.2124442066
H 0.3799940237 -0.6254204047 0.1436161721
H 1.8915268922 -0.0804389367 0.3214185833
Rb -1.5071241142 1.1176535551 -0.0896589972
F -0.7552054575 -1.4480775078 0.0121800353
5

O 0.9676585386 0.2186840093 0.2096813079
H 0.3607437586 -0.6440591562 0.1414171214
H 1.8721619621 -0.0686820731 0.3190529831
Rb -1.4864718531 1.1703747411 -0.0874454272
F -0.7140924063 -1.493514191 0.017294015
5

O 0.9437591408 0.219382887 0.2068266781
H 0.3411905084 -0.6649436926 0.1391814896
H 1.8515770759 -0.0571602699 0.3165457692
Rb -1.4658833108 1.2234236943 -0.0852405791
F -0.6706434143 -1.5378992885 0.0226866423
5

O 0.9193659664 0.2185730925 0.2039335628
H 0.3206451083 -0.6892277401 0.1368461066
H 1.8316188691 -0.0422021342 0.3140866199
Rb -1.444240592 1.2773855035 -0.0829177311
F -0.6273893518 -1.5817253915 0.0280514418
5

O 0.893492162 0.2183785534 0.2008949017
H 0.2994262532 -0.7193255334 0.1344773367
H 1.8103587648 -0.0252264585 0.3114306234
Rb -1.4210720394 1.3328730024 -0.0804302975
F -0.5822051406 -1.6238962337 0.0336274358
5

O 0.866984065 0.2196729557 0.1978207185
H 0.2755102966 -0.7579525389 0.1318523006
H 1.7888679702 -0.0036882664 0.3086825704
Rb -1.3951702551 1.3898666226 -0.0776379141
F -0.5361920768 -1.6650954428 0.0392823247
5

O 0.8413217001 0.2253979207 0.1948155219
H 0.2478770762 -0.8083212843 0.1288114357
H 1.7678028277 0.0221504249 0.3059830237
Rb -1.3673064103 1.4485659215 -0.0746142959
F -0.4896951937 -1.7049896527 0.0450043146
5

O 0.8174994895 0.2338983344 0.1919276345
H 0.2255639439 -0.856224137 0.1263791444
H 1.7472782066 0.0460677215 0.3034225941
Rb -1.3417001804 1.5060389859 -0.0718315047
F -0.4486414596 -1.7469775746 0.0501021317
5

O 0.7948727404 0.2383070332 0.1892017557
H 0.2104762107 -0.8953963381 0.1247723108
H 1.7279835147 0.0678261039 0.3010177775
Rb -1.3203842575 1.5623989876 -0.0695557163
F -0.4129482083 -1.7903324564 0.0545638724
5

O 0.7710181034 0.2429924045 0.1863167124
H 0.2006625255 -0.9287031249 0.1237537115
H 1.7060372997 0.0825736054 0.298342057
Rb -1.3014616038 1.618709881 -0.0675609919
F -0.3762563249 -1.8327694358 0.0591485112
5

O 0.7461104842 0.2455783592 0.1833026049
H 0.1940622149 -0.9586932418 0.1230978966
H 1.6828935873 0.0949601896 0.2955450024
Rb -1.2837046526 1.6753974111 -0.0657034463
F -0.3393616337 -1.8744393879 0.0637579424
5

O 0.7197623789 0.2466950292 0.180109864
H 0.1894999973 -0.9867979785 0.1226760526
H 1.65817386 0.1055598643 0.2925773768
Rb -1.2660361743 1.7326086677 -0.0638556071
F -0.301400062 -1.9152622525 0.0684923139
5

O 0.6916647348 0.246782955 0.1766853034
H 0.1864028983 -1.0141003018 0.1224186049
H 1.6316148997 0.1150118823 0.2894154751
Rb -1.2476209539 1.7904185979 -0.0619140849
F -0.2620615789 -1.9553098033 0.0733947016
5

O 0.6621867475 0.2455124228 0.1731236188
H 0.1844937446 -1.0406020336 0.1223009561
H 1.6036083987 0.1232284898 0.2860731377
Rb -1.2289483902 1.8489723809 -0.0599507315
F -0.2213405006 -1.9943079297 0.078453019
5

O 0.6305944626 0.2429169691 0.1693163809
H 0.1832859052 -1.0669732542 0.1222574444
H 1.5735671079 0.1314228156 0.2824904052
Rb -1.208566864 1.9081289353 -0.0577855593
F -0.1788806117 -2.0326921356 0.0837213289
5

O 0.5968706257 0.2391520538 0.1652704804
H 0.1829354302 -1.093524512 0.1223195456
H 1.5414008442 0.1394055233 0.2786487088
Rb -1.186568427 1.9680427802 -0.0554339036
F -0.1346384731 -2.0702725151 0.0891951689
5

O 0.5611411052 0.2361789418 0.1610226272
H 0.1830008859 -1.1217296577 0.1224576829
H 1.5071040145 0.1473894128 0.2745245493
Rb -1.1628113389 2.0283594606 -0.0528868602
F -0.0884346667 -2.1073948273 0.0948820009
5

O 0.5225291691 0.2303444358 0.1564426072
H 0.1840767254 -1.148641405 0.1227233447
H 1.4698454384 0.15393368 0.2700524719
Rb -1.137137119 2.0900471691 -0.0501187177
F -0.0393142139 -2.1428805497 0.100900294
5

O 0.4811036766 0.2237475743 0.1515697969
H 0.1857674648 -1.1774944043 0.1230747712
H 1.4298706867 0.1622582879 0.265226294
Rb -1.1083196949 2.1523765804 -0.0469894839
F 0.0115778668 -2.178084708 0.107118622
