5

O 1.2053080566 0.3113993923 0.2313458375
H 0.8095482374 -0.5765948725 0.1895574059
H 2.1460588133 0.1766262734 0.3557525756
Cs -1.6649325397 1.111497357 -0.1053692849
I -1.4959825675 -1.8401248201 -0.0712865341
5

O 1.1952183621 0.3141974887 0.2302341679
H 0.7861122121 -0.5690977511 0.1866100779
H 2.1336038898 0.1634297608 0.3543915234
Cs -1.6488682591 1.1626179084 -0.1038023311
I -1.4660662047 -1.8883440766 -0.067433438
5

O 1.1809148643 0.3120388452 0.2288787318
H 0.7712635328 -0.5722564422 0.1848484898
H 2.119521291 0.1624847043 0.3525257112
Cs -1.6303091217 1.2156515638 -0.1019444022
I -1.4413905664 -1.9351153411 -0.0643085304
5

O 1.1696596836 0.3140889858 0.2275442319
H 0.746270818 -0.5650982286 0.1820574325
H 2.1055240832 0.1478539214 0.3508470536
Cs -1.6140888443 1.2678957478 -0.1003543324
I -1.4073657404 -1.9819370963 -0.0600943856
5

O 1.1529566437 0.3115406877 0.2259104637
H 0.7306819597 -0.5696134177 0.1808438434
H 2.0893732857 0.147735605 0.3483486801
Cs -1.5926071469 1.3214109988 -0.098181554
I -1.3804047421 -2.0282705437 -0.056921433
5

O 1.1413503759 0.3130430426 0.2246208516
H 0.7052428124 -0.5626667595 0.1777682181
H 2.0746850463 0.1322332343 0.3466677646
Cs -1.5767689834 1.374374192 -0.0966376701
I -1.344509251 -2.0741803793 -0.0524191641
5

O 1.1227489058 0.309242017 0.2229109421
H 0.6912807747 -0.5700188822 0.176234721
H 2.0573879034 0.1346374461 0.3442338086
Cs -1.5542487267 1.4286965039 -0.094339983
I -1.3171688571 -2.1197537547 -0.0490394886
5

O 1.1068655705 0.3080846629 0.2214289592
H 0.671283509 -0.5706183063 0.174237333
H 2.0406301234 0.1280132351 0.3418034547
Cs -1.534122679 1.4825740866 -0.0923545115
I -1.2846565237 -2.1652503483 -0.0451152352
5

O 1.0901943967 0.3063016671 0.219863822
H 0.6512423866 -0.5720419436 0.1721514444
H 2.0232657798 0.1220029151 0.3393448707
Cs -1.5133578519 1.5368594624 -0.0902880476
I -1.2513447111 -2.2103187709 -0.0410720894
5

O 1.0726382401 0.3043509842 0.218158899
H 0.6304454423 -0.5738199255 0.1700507463
H 2.0049707014 0.1156376646 0.3367623519
Cs -1.491675683 1.5915523466 -0.0881138281
I -1.2163787007 -2.2549177399 -0.036858169
5

O 1.0541302495 0.3019813314 0.2158516328
H 0.6083818143 -0.5761141915 0.167625441
H 1.9855117686 0.1084923017 0.3345062805
Cs -1.4692456635 1.6470274438 -0.0857320478
I -1.1787781688 -2.2985835554 -0.0322513064
5

O 1.0350115567 0.2990604715 0.2135340309
H 0.5876788881 -0.5797285727 0.1652409125
H 1.965840687 0.1027917664 0.3322469845
Cs -1.4466413394 1.7027418194 -0.0833276654
I -1.1418897924 -2.3420621545 -0.0276942623
5

O 1.015555798 0.2960127789 0.2112788409
H 0.567295654 -0.5836025689 0.1626984867
H 1.9459687116 0.0976771647 0.3299971514
Cs -1.4235494266 1.7583799871 -0.0808645831
I -1.105270737 -2.3856640317 -0.0231098958
5

O 0.9950363163 0.2933737784 0.2089537511
H 0.5455377168 -0.5870271454 0.1597664221
H 1.9248085585 0.0917655468 0.3276801207
Cs -1.3985665243 1.8139851267 -0.0781658705
I -1.0668160671 -2.4292939765 -0.0182344233
5

O 0.9733819661 0.2904880603 0.2064823119
H 0.5226630963 -0.590757119 0.1563612884
H 1.9024110754 0.0852578981 0.3254124675
Cs -1.3722983353 1.8701225882 -0.0752732214
I -1.0261578024 -2.4723080974 -0.0129828463
5

O 0.9506549375 0.287156679 0.2037751966
H 0.4997899382 -0.5954929361 0.153057912
H 1.8791421728 0.0793229464 0.323063977
Cs -1.3450291456 1.926697276 -0.0722506637
I -0.9845579028 -2.5148806352 -0.0076464218
5

O 0.9268921822 0.2836395487 0.2008869177
H 0.4764258192 -0.6007198985 0.1507175979
H 1.8549933059 0.0736463981 0.3201219532
Cs -1.3164629683 1.9834862089 -0.0692016655
I -0.941848339 -2.5572489271 -0.0025248033
5

O 0.9018465038 0.2800823627 0.198058298
H 0.4514975317 -0.6059307405 0.1495836315
H 1.8295572918 0.0672478584 0.316178952
Cs -1.2861340326 2.0406199912 -0.0661946021
I -0.8967672945 -2.5992161417 0.0023737207
5

O 0.8756369274 0.2764261922 0.195550905
H 0.4264780018 -0.6117535859 0.1487297264
H 1.8032166586 0.0613055645 0.3116708791
Cs -1.2544801551 2.0978980034 -0.0631767779
I -0.8508514327 -2.6410728441 0.0072252675
5

O 0.848747365 0.2722301132 0.1933487023
H 0.4027134148 -0.6187081174 0.1468706793
H 1.7766787872 0.0570320452 0.307438353
Cs -1.2224137148 2.155224743 -0.0600130945
I -0.8057258521 -2.6829754539 0.0123553601
5

O 0.8200827569 0.268305937 0.1907962146
H 0.3768686815 -0.624953619 0.1435350227
H 1.7478840725 0.0510469474 0.3036333426
Cs -1.1886613123 2.212791211 -0.0564132561
I -0.7561741985 -2.7243871463 0.0184486763
5

O 0.7901613829 0.2640890727 0.1823186911
H 0.3494388188 -0.6315542879 0.1325175864
H 1.7160775146 0.0466224465 0.3099941786
Cs -1.1508014703 2.2700313391 -0.0490478398
I -0.704876246 -2.7663852404 0.0242173838
5

O 0.7596691553 0.2596815458 0.1804149264
H 0.3212772113 -0.6376252127 0.1300096658
H 1.6854663209 0.0393632859 0.3049601515
Cs -1.1144538082 2.3283468473 -0.0455369262
I -0.6519588792 -2.8069631362 0.0301521827
5

O 0.7261573224 0.2552057975 0.1770318718
H 0.2917492311 -0.645004058 0.1266095068
H 1.6519781296 0.03364486 0.3006308673
Cs -1.0736833274 2.3866480323 -0.0410963691
I -0.5962013555 -2.8476913017 0.0368241232
5

O 0.6903104772 0.2501827558 0.1738663762
H 0.2609334672 -0.6531691379 0.1243399657
H 1.6165684715 0.0283038449 0.2952240665
Cs -1.0300741533 2.4454316105 -0.0366845396
I -0.5377382625 -2.8879457432 0.0432541313
5

O 0.6525051106 0.2451228153 0.1711402478
H 0.2285639377 -0.6612716584 0.1230120811
H 1.5793981864 0.0228394104 0.2887411691
Cs -0.9837475734 2.5042697711 -0.0323451521
I -0.4767196612 -2.9281570084 0.0494516542
