2

Ca 0.2999999999999997 0.0 0.0
I 2.38041842 0.0 0.0
2

Ca 0.25 0.0 0.0
I 2.4304184199999996 0.0 0.0
2

Ca 0.2000000000000003 0.0 0.0
I 2.4804184199999995 0.0 0.0
2

Ca 0.15 0.0 0.0
I 2.5304184199999997 0.0 0.0
2

Ca 0.1 0.0 0.0
I 2.5804184199999995 0.0 0.0
2

Ca 0.049999999999999704 0.0 0.0
I 2.63041842 0.0 0.0
2

Ca 0.0 0.0 0.0
I 2.6804184199999996 0.0 0.0
2

Ca -0.05 0.0 0.0
I 2.7304184199999995 0.0 0.0
2

Ca -0.1 0.0 0.0
I 2.7804184199999997 0.0 0.0
2

Ca -0.15 0.0 0.0
I 2.8304184199999995 0.0 0.0
2

Ca -0.2 0.0 0.0
I 2.88041842 0.0 0.0
2

Ca -0.25 0.0 0.0
I 2.9304184199999996 0.0 0.0
2

Ca -0.3 0.0 0.0
I 2.9804184199999995 0.0 0.0
2

Ca -0.35 0.0 0.0
I 3.0304184199999997 0.0 0.0
2

Ca -0.4 0.0 0.0
I 3.0804184199999995 0.0 0.0
2

Ca -0.45 0.0 0.0
I 3.13041842 0.0 0.0
2

Ca -0.5 0.0 0.0
I 3.1804184199999996 0.0 0.0
2

Ca -0.55 0.0 0.0
I 3.2304184199999995 0.0 0.0
2

Ca -0.6 0.0 0.0
I 3.2804184199999997 0.0 0.0
2

Ca -0.65 0.0 0.0
I 3.3304184199999995 0.0 0.0
2

Ca -0.7 0.0 0.0
I 3.38041842 0.0 0.0
2

Ca -0.75 0.0 0.0
I 3.4304184199999996 0.0 0.0
2

Ca -0.8 0.0 0.0
I 3.4804184199999995 0.0 0.0
2

Ca -0.85 0.0 0.0
I 3.5304184199999997 0.0 0.0
2

Ca -0.9000000000000006 0.0 0.0
I 3.5804184200000004 0.0 0.0
2

Ca -0.95 0.0 0.0
I 3.63041842 0.0 0.0
2

Ca -1.0 0.0 0.0
I 3.6804184199999996 0.0 0.0
2

Ca -1.05 0.0 0.0
I 3.7304184199999995 0.0 0.0
2

Ca -1.1 0.0 0.0
I 3.7804184199999997 0.0 0.0
2

Ca -1.1500000000000006 0.0 0.0
I 3.8304184200000004 0.0 0.0
2

Ca -1.2 0.0 0.0
I 3.88041842 0.0 0.0
2

Ca -1.25 0.0 0.0
I 3.9304184199999996 0.0 0.0
2

Ca -1.3 0.0 0.0
I 3.9804184199999995 0.0 0.0
2

Ca -1.3500000000000005 0.0 0.0
I 4.03041842 0.0 0.0
2

Ca -1.3999999999999995 0.0 0.0
I 4.080418419999999 0.0 0.0
2

Ca -1.45 0.0 0.0
I 4.13041842 0.0 0.0
2

Ca -1.5 0.0 0.0
I 4.18041842 0.0 0.0
2

Ca -1.55 0.0 0.0
I 4.2304184199999995 0.0 0.0
2

Ca -1.5999999999999994 0.0 0.0
I 4.280418419999999 0.0 0.0
2

Ca -1.6500000000000006 0.0 0.0
I 4.33041842 0.0 0.0
2

Ca -1.7 0.0 0.0
I 4.38041842 0.0 0.0
2

Ca -1.75 0.0 0.0
I 4.43041842 0.0 0.0
2

Ca -1.8 0.0 0.0
I 4.4804184199999995 0.0 0.0
2

Ca -1.8500000000000005 0.0 0.0
I 4.53041842 0.0 0.0
2

Ca -1.8999999999999995 0.0 0.0
I 4.580418419999999 0.0 0.0
2

Ca -1.95 0.0 0.0
I 4.63041842 0.0 0.0
2

Ca -2.0000000000000004 0.0 0.0
I 4.6804184200000005 0.0 0.0
2

Ca -2.05 0.0 0.0
I 4.7304184199999995 0.0 0.0
2

Ca -2.1000000000000005 0.0 0.0
I 4.78041842 0.0 0.0
2

Ca -2.1499999999999995 0.0 0.0
I 4.830418419999999 0.0 0.0
2

Ca -2.2 0.0 0.0
I 4.88041842 0.0 0.0
2

Ca -2.25 0.0 0.0
I 4.93041842 0.0 0.0
2

Ca -2.3 0.0 0.0
I 4.9804184199999995 0.0 0.0
2

Ca -2.3500000000000005 0.0 0.0
I 5.03041842 0.0 0.0
2

Ca -2.400000000000001 0.0 0.0
I 5.08041842 0.0 0.0
2

Ca -2.45 0.0 0.0
I 5.13041842 0.0 0.0
2

Ca -2.5 0.0 0.0
I 5.18041842 0.0 0.0
2

Ca -2.55 0.0 0.0
I 5.2304184199999995 0.0 0.0
2

Ca -2.6000000000000005 0.0 0.0
I 5.28041842 0.0 0.0
2

Ca -2.650000000000001 0.0 0.0
I 5.33041842 0.0 0.0
2

Ca -2.7 0.0 0.0
I 5.38041842 0.0 0.0
