2

Cs 0.29999999999999993 0.0 0.0
Cl 2.6408768782000003 0.0 0.0
2

Cs 0.25 0.0 0.0
Cl 2.6908768782 0.0 0.0
2

Cs 0.20000000000000007 0.0 0.0
Cl 2.7408768782 0.0 0.0
2

Cs 0.1499999999999998 0.0 0.0
Cl 2.7908768782 0.0 0.0
2

Cs 0.1000000000000002 0.0 0.0
Cl 2.8408768782 0.0 0.0
2

Cs 0.04999999999999993 0.0 0.0
Cl 2.8908768782000003 0.0 0.0
2

Cs 0.0 0.0 0.0
Cl 2.9408768782 0.0 0.0
2

Cs -0.04999999999999993 0.0 0.0
Cl 2.9908768782 0.0 0.0
2

Cs -0.09999999999999987 0.0 0.0
Cl 3.0408768781999997 0.0 0.0
2

Cs -0.1499999999999998 0.0 0.0
Cl 3.0908768782 0.0 0.0
2

Cs -0.2000000000000004 0.0 0.0
Cl 3.1408768782000003 0.0 0.0
2

Cs -0.25000000000000033 0.0 0.0
Cl 3.1908768782000005 0.0 0.0
2

Cs -0.2999999999999996 0.0 0.0
Cl 3.2408768781999995 0.0 0.0
2

Cs -0.3500000000000002 0.0 0.0
Cl 3.2908768782 0.0 0.0
2

Cs -0.40000000000000013 0.0 0.0
Cl 3.3408768782 0.0 0.0
2

Cs -0.45000000000000007 0.0 0.0
Cl 3.3908768782000003 0.0 0.0
2

Cs -0.5 0.0 0.0
Cl 3.4408768782 0.0 0.0
2

Cs -0.5499999999999999 0.0 0.0
Cl 3.4908768782 0.0 0.0
2

Cs -0.5999999999999999 0.0 0.0
Cl 3.5408768781999997 0.0 0.0
2

Cs -0.6499999999999998 0.0 0.0
Cl 3.5908768782 0.0 0.0
2

Cs -0.7000000000000004 0.0 0.0
Cl 3.6408768782000003 0.0 0.0
2

Cs -0.7500000000000003 0.0 0.0
Cl 3.6908768782000005 0.0 0.0
2

Cs -0.7999999999999996 0.0 0.0
Cl 3.7408768781999995 0.0 0.0
2

Cs -0.8500000000000002 0.0 0.0
Cl 3.7908768782 0.0 0.0
2

Cs -0.9000000000000001 0.0 0.0
Cl 3.8408768782 0.0 0.0
2

Cs -0.9500000000000001 0.0 0.0
Cl 3.8908768782000003 0.0 0.0
2

Cs -1.0 0.0 0.0
Cl 3.9408768782 0.0 0.0
2

Cs -1.0499999999999998 0.0 0.0
Cl 3.9908768782 0.0 0.0
2

Cs -1.1000000000000005 0.0 0.0
Cl 4.040876878200001 0.0 0.0
2

Cs -1.1500000000000004 0.0 0.0
Cl 4.0908768782000005 0.0 0.0
2

Cs -1.2000000000000004 0.0 0.0
Cl 4.1408768782 0.0 0.0
2

Cs -1.2500000000000002 0.0 0.0
Cl 4.1908768782 0.0 0.0
2

Cs -1.2999999999999996 0.0 0.0
Cl 4.2408768782 0.0 0.0
2

Cs -1.3500000000000008 0.0 0.0
Cl 4.290876878200001 0.0 0.0
2

Cs -1.3999999999999995 0.0 0.0
Cl 4.3408768782 0.0 0.0
2

Cs -1.45 0.0 0.0
Cl 4.3908768782 0.0 0.0
2

Cs -1.5 0.0 0.0
Cl 4.4408768782 0.0 0.0
2

Cs -1.5499999999999998 0.0 0.0
Cl 4.4908768782 0.0 0.0
2

Cs -1.5999999999999999 0.0 0.0
Cl 4.5408768782 0.0 0.0
2

Cs -1.6500000000000004 0.0 0.0
Cl 4.5908768782000005 0.0 0.0
2

Cs -1.7000000000000004 0.0 0.0
Cl 4.6408768782 0.0 0.0
2

Cs -1.7500000000000002 0.0 0.0
Cl 4.6908768782 0.0 0.0
2

Cs -1.7999999999999996 0.0 0.0
Cl 4.7408768782 0.0 0.0
2

Cs -1.8500000000000008 0.0 0.0
Cl 4.790876878200001 0.0 0.0
2

Cs -1.8999999999999995 0.0 0.0
Cl 4.8408768782 0.0 0.0
2

Cs -1.95 0.0 0.0
Cl 4.8908768782 0.0 0.0
2

Cs -2.0000000000000004 0.0 0.0
Cl 4.940876878200001 0.0 0.0
2

Cs -2.05 0.0 0.0
Cl 4.9908768782 0.0 0.0
2

Cs -2.1000000000000005 0.0 0.0
Cl 5.040876878200001 0.0 0.0
2

Cs -2.15 0.0 0.0
Cl 5.0908768782 0.0 0.0
2

Cs -2.2 0.0 0.0
Cl 5.1408768782 0.0 0.0
2

Cs -2.2500000000000004 0.0 0.0
Cl 5.1908768782 0.0 0.0
2

Cs -2.2999999999999994 0.0 0.0
Cl 5.2408768782 0.0 0.0
2

Cs -2.350000000000001 0.0 0.0
Cl 5.290876878200001 0.0 0.0
2

Cs -2.4 0.0 0.0
Cl 5.3408768782000005 0.0 0.0
2

Cs -2.45 0.0 0.0
Cl 5.3908768782 0.0 0.0
2

Cs -2.5 0.0 0.0
Cl 5.4408768782 0.0 0.0
2

Cs -2.55 0.0 0.0
Cl 5.4908768782 0.0 0.0
2

Cs -2.6000000000000005 0.0 0.0
Cl 5.540876878200001 0.0 0.0
2

Cs -2.6500000000000004 0.0 0.0
Cl 5.5908768782000005 0.0 0.0
2

Cs -2.7 0.0 0.0
Cl 5.6408768782 0.0 0.0
