2

Cs 0.29999999999999993 0.0 0.0
F 2.0791859334 0.0 0.0
2

Cs 0.25000000000000006 0.0 0.0
F 2.1291859333999996 0.0 0.0
2

Cs 0.20000000000000015 0.0 0.0
F 2.1791859333999994 0.0 0.0
2

Cs 0.14999999999999997 0.0 0.0
F 2.2291859333999997 0.0 0.0
2

Cs 0.10000000000000007 0.0 0.0
F 2.2791859333999995 0.0 0.0
2

Cs 0.0499999999999999 0.0 0.0
F 2.3291859334 0.0 0.0
2

Cs 0.0 0.0 0.0
F 2.3791859333999996 0.0 0.0
2

Cs -0.049999999999999635 0.0 0.0
F 2.4291859333999994 0.0 0.0
2

Cs -0.10000000000000034 0.0 0.0
F 2.4791859334 0.0 0.0
2

Cs -0.14999999999999997 0.0 0.0
F 2.5291859333999995 0.0 0.0
2

Cs -0.20000000000000015 0.0 0.0
F 2.5791859334 0.0 0.0
2

Cs -0.24999999999999978 0.0 0.0
F 2.629185933399999 0.0 0.0
2

Cs -0.29999999999999993 0.0 0.0
F 2.6791859333999994 0.0 0.0
2

Cs -0.3500000000000001 0.0 0.0
F 2.7291859333999997 0.0 0.0
2

Cs -0.39999999999999974 0.0 0.0
F 2.7791859333999995 0.0 0.0
2

Cs -0.45000000000000046 0.0 0.0
F 2.8291859334000002 0.0 0.0
2

Cs -0.5000000000000001 0.0 0.0
F 2.8791859333999996 0.0 0.0
2

Cs -0.5499999999999997 0.0 0.0
F 2.9291859333999994 0.0 0.0
2

Cs -0.5999999999999999 0.0 0.0
F 2.9791859333999997 0.0 0.0
2

Cs -0.65 0.0 0.0
F 3.0291859333999995 0.0 0.0
2

Cs -0.7000000000000002 0.0 0.0
F 3.0791859334 0.0 0.0
2

Cs -0.7499999999999999 0.0 0.0
F 3.1291859333999996 0.0 0.0
2

Cs -0.8 0.0 0.0
F 3.1791859333999994 0.0 0.0
2

Cs -0.8500000000000002 0.0 0.0
F 3.2291859333999997 0.0 0.0
2

Cs -0.9000000000000004 0.0 0.0
F 3.2791859334 0.0 0.0
2

Cs -0.95 0.0 0.0
F 3.3291859334 0.0 0.0
2

Cs -1.0000000000000002 0.0 0.0
F 3.3791859333999996 0.0 0.0
2

Cs -1.0499999999999998 0.0 0.0
F 3.4291859333999994 0.0 0.0
2

Cs -1.0999999999999999 0.0 0.0
F 3.4791859333999997 0.0 0.0
2

Cs -1.1500000000000001 0.0 0.0
F 3.5291859333999995 0.0 0.0
2

Cs -1.2000000000000004 0.0 0.0
F 3.5791859334 0.0 0.0
2

Cs -1.25 0.0 0.0
F 3.6291859333999996 0.0 0.0
2

Cs -1.3 0.0 0.0
F 3.6791859334 0.0 0.0
2

Cs -1.3500000000000008 0.0 0.0
F 3.7291859334000006 0.0 0.0
2

Cs -1.4 0.0 0.0
F 3.7791859333999995 0.0 0.0
2

Cs -1.4500000000000002 0.0 0.0
F 3.8291859334 0.0 0.0
2

Cs -1.5000000000000002 0.0 0.0
F 3.8791859334 0.0 0.0
2

Cs -1.5500000000000005 0.0 0.0
F 3.9291859334 0.0 0.0
2

Cs -1.5999999999999994 0.0 0.0
F 3.9791859333999993 0.0 0.0
2

Cs -1.6500000000000001 0.0 0.0
F 4.0291859334 0.0 0.0
2

Cs -1.7000000000000004 0.0 0.0
F 4.0791859334 0.0 0.0
2

Cs -1.75 0.0 0.0
F 4.1291859334 0.0 0.0
2

Cs -1.7999999999999996 0.0 0.0
F 4.179185933399999 0.0 0.0
2

Cs -1.8500000000000003 0.0 0.0
F 4.2291859334 0.0 0.0
2

Cs -1.8999999999999995 0.0 0.0
F 4.279185933399999 0.0 0.0
2

Cs -1.9500000000000002 0.0 0.0
F 4.3291859334 0.0 0.0
2

Cs -2.000000000000001 0.0 0.0
F 4.3791859334000005 0.0 0.0
2

Cs -2.05 0.0 0.0
F 4.429185933399999 0.0 0.0
2

Cs -2.1000000000000005 0.0 0.0
F 4.4791859334 0.0 0.0
2

Cs -2.149999999999999 0.0 0.0
F 4.529185933399999 0.0 0.0
2

Cs -2.1999999999999997 0.0 0.0
F 4.5791859334 0.0 0.0
2

Cs -2.25 0.0 0.0
F 4.6291859334 0.0 0.0
2

Cs -2.3 0.0 0.0
F 4.679185933399999 0.0 0.0
2

Cs -2.3500000000000005 0.0 0.0
F 4.7291859334 0.0 0.0
2

Cs -2.400000000000001 0.0 0.0
F 4.7791859334 0.0 0.0
2

Cs -2.45 0.0 0.0
F 4.8291859334 0.0 0.0
2

Cs -2.5 0.0 0.0
F 4.8791859334 0.0 0.0
2

Cs -2.5499999999999994 0.0 0.0
F 4.929185933399999 0.0 0.0
2

Cs -2.6 0.0 0.0
F 4.9791859334 0.0 0.0
2

Cs -2.65 0.0 0.0
F 5.029185933399999 0.0 0.0
2

Cs -2.7000000000000006 0.0 0.0
F 5.0791859334 0.0 0.0
