2

Cs 0.29999999999999966 0.0 0.0
Mg 2.95 0.0 0.0
2

Cs 0.24999999999999983 0.0 0.0
Mg 3.0 0.0 0.0
2

Cs 0.2 0.0 0.0
Mg 3.05 0.0 0.0
2

Cs 0.14999999999999983 0.0 0.0
Mg 3.1 0.0 0.0
2

Cs 0.1 0.0 0.0
Mg 3.15 0.0 0.0
2

Cs 0.04999999999999982 0.0 0.0
Mg 3.2 0.0 0.0
2

Cs 0.0 0.0 0.0
Mg 3.25 0.0 0.0
2

Cs -0.04999999999999982 0.0 0.0
Mg 3.3 0.0 0.0
2

Cs -0.10000000000000037 0.0 0.0
Mg 3.3500000000000005 0.0 0.0
2

Cs -0.1500000000000002 0.0 0.0
Mg 3.4000000000000004 0.0 0.0
2

Cs -0.2 0.0 0.0
Mg 3.45 0.0 0.0
2

Cs -0.24999999999999983 0.0 0.0
Mg 3.5 0.0 0.0
2

Cs -0.29999999999999966 0.0 0.0
Mg 3.55 0.0 0.0
2

Cs -0.3500000000000002 0.0 0.0
Mg 3.6 0.0 0.0
2

Cs -0.4 0.0 0.0
Mg 3.65 0.0 0.0
2

Cs -0.44999999999999984 0.0 0.0
Mg 3.6999999999999997 0.0 0.0
2

Cs -0.49999999999999967 0.0 0.0
Mg 3.7499999999999996 0.0 0.0
2

Cs -0.5499999999999995 0.0 0.0
Mg 3.7999999999999994 0.0 0.0
2

Cs -0.6000000000000001 0.0 0.0
Mg 3.85 0.0 0.0
2

Cs -0.6499999999999999 0.0 0.0
Mg 3.9 0.0 0.0
2

Cs -0.7000000000000004 0.0 0.0
Mg 3.95 0.0 0.0
2

Cs -0.7500000000000002 0.0 0.0
Mg 4.0 0.0 0.0
2

Cs -0.8 0.0 0.0
Mg 4.05 0.0 0.0
2

Cs -0.8499999999999999 0.0 0.0
Mg 4.1 0.0 0.0
2

Cs -0.9000000000000004 0.0 0.0
Mg 4.15 0.0 0.0
2

Cs -0.9500000000000002 0.0 0.0
Mg 4.2 0.0 0.0
2

Cs -1.0 0.0 0.0
Mg 4.25 0.0 0.0
2

Cs -1.0499999999999998 0.0 0.0
Mg 4.3 0.0 0.0
2

Cs -1.0999999999999996 0.0 0.0
Mg 4.35 0.0 0.0
2

Cs -1.1500000000000004 0.0 0.0
Mg 4.4 0.0 0.0
2

Cs -1.2000000000000002 0.0 0.0
Mg 4.45 0.0 0.0
2

Cs -1.25 0.0 0.0
Mg 4.5 0.0 0.0
2

Cs -1.3000000000000005 0.0 0.0
Mg 4.550000000000001 0.0 0.0
2

Cs -1.3500000000000003 0.0 0.0
Mg 4.6000000000000005 0.0 0.0
2

Cs -1.4000000000000001 0.0 0.0
Mg 4.65 0.0 0.0
2

Cs -1.45 0.0 0.0
Mg 4.7 0.0 0.0
2

Cs -1.4999999999999998 0.0 0.0
Mg 4.75 0.0 0.0
2

Cs -1.550000000000001 0.0 0.0
Mg 4.800000000000001 0.0 0.0
2

Cs -1.5999999999999994 0.0 0.0
Mg 4.85 0.0 0.0
2

Cs -1.6500000000000006 0.0 0.0
Mg 4.9 0.0 0.0
2

Cs -1.7000000000000004 0.0 0.0
Mg 4.95 0.0 0.0
2

Cs -1.7500000000000002 0.0 0.0
Mg 5.0 0.0 0.0
2

Cs -1.8 0.0 0.0
Mg 5.05 0.0 0.0
2

Cs -1.8499999999999999 0.0 0.0
Mg 5.1 0.0 0.0
2

Cs -1.9000000000000004 0.0 0.0
Mg 5.15 0.0 0.0
2

Cs -1.9500000000000002 0.0 0.0
Mg 5.2 0.0 0.0
2

Cs -2.0 0.0 0.0
Mg 5.25 0.0 0.0
2

Cs -2.0500000000000007 0.0 0.0
Mg 5.300000000000001 0.0 0.0
2

Cs -2.0999999999999996 0.0 0.0
Mg 5.35 0.0 0.0
2

Cs -2.1500000000000004 0.0 0.0
Mg 5.4 0.0 0.0
2

Cs -2.200000000000001 0.0 0.0
Mg 5.450000000000001 0.0 0.0
2

Cs -2.25 0.0 0.0
Mg 5.5 0.0 0.0
2

Cs -2.3000000000000007 0.0 0.0
Mg 5.550000000000001 0.0 0.0
2

Cs -2.3499999999999996 0.0 0.0
Mg 5.6 0.0 0.0
2

Cs -2.4000000000000004 0.0 0.0
Mg 5.65 0.0 0.0
2

Cs -2.45 0.0 0.0
Mg 5.7 0.0 0.0
2

Cs -2.5 0.0 0.0
Mg 5.75 0.0 0.0
2

Cs -2.55 0.0 0.0
Mg 5.8 0.0 0.0
2

Cs -2.600000000000001 0.0 0.0
Mg 5.8500000000000005 0.0 0.0
2

Cs -2.650000000000001 0.0 0.0
Mg 5.9 0.0 0.0
2

Cs -2.7000000000000006 0.0 0.0
Mg 5.95 0.0 0.0
