2

F 0.2999999999999997 0.0 0.0
F 2.2 0.0 0.0
2

F 0.24999999999999994 0.0 0.0
F 2.25 0.0 0.0
2

F 0.20000000000000018 0.0 0.0
F 2.3 0.0 0.0
2

F 0.14999999999999986 0.0 0.0
F 2.35 0.0 0.0
2

F 0.10000000000000009 0.0 0.0
F 2.4 0.0 0.0
2

F 0.04999999999999977 0.0 0.0
F 2.45 0.0 0.0
2

F 0.0 0.0 0.0
F 2.5 0.0 0.0
2

F -0.050000000000000044 0.0 0.0
F 2.55 0.0 0.0
2

F -0.10000000000000009 0.0 0.0
F 2.6 0.0 0.0
2

F -0.15000000000000013 0.0 0.0
F 2.6500000000000004 0.0 0.0
2

F -0.20000000000000018 0.0 0.0
F 2.7 0.0 0.0
2

F -0.2500000000000002 0.0 0.0
F 2.75 0.0 0.0
2

F -0.2999999999999997 0.0 0.0
F 2.8 0.0 0.0
2

F -0.3500000000000003 0.0 0.0
F 2.8500000000000005 0.0 0.0
2

F -0.3999999999999998 0.0 0.0
F 2.9 0.0 0.0
2

F -0.4500000000000004 0.0 0.0
F 2.95 0.0 0.0
2

F -0.4999999999999999 0.0 0.0
F 3.0 0.0 0.0
2

F -0.5499999999999999 0.0 0.0
F 3.05 0.0 0.0
2

F -0.6 0.0 0.0
F 3.1 0.0 0.0
2

F -0.65 0.0 0.0
F 3.15 0.0 0.0
2

F -0.7000000000000001 0.0 0.0
F 3.2 0.0 0.0
2

F -0.7500000000000001 0.0 0.0
F 3.25 0.0 0.0
2

F -0.7999999999999996 0.0 0.0
F 3.3 0.0 0.0
2

F -0.8500000000000002 0.0 0.0
F 3.35 0.0 0.0
2

F -0.9000000000000002 0.0 0.0
F 3.4000000000000004 0.0 0.0
2

F -0.9500000000000003 0.0 0.0
F 3.45 0.0 0.0
2

F -0.9999999999999998 0.0 0.0
F 3.5 0.0 0.0
2

F -1.0499999999999998 0.0 0.0
F 3.55 0.0 0.0
2

F -1.0999999999999999 0.0 0.0
F 3.5999999999999996 0.0 0.0
2

F -1.1500000000000004 0.0 0.0
F 3.6500000000000004 0.0 0.0
2

F -1.2 0.0 0.0
F 3.7 0.0 0.0
2

F -1.25 0.0 0.0
F 3.75 0.0 0.0
2

F -1.3 0.0 0.0
F 3.8 0.0 0.0
2

F -1.3500000000000005 0.0 0.0
F 3.8500000000000005 0.0 0.0
2

F -1.4000000000000001 0.0 0.0
F 3.9000000000000004 0.0 0.0
2

F -1.4500000000000002 0.0 0.0
F 3.95 0.0 0.0
2

F -1.5000000000000002 0.0 0.0
F 4.0 0.0 0.0
2

F -1.5500000000000007 0.0 0.0
F 4.050000000000001 0.0 0.0
2

F -1.5999999999999996 0.0 0.0
F 4.1 0.0 0.0
2

F -1.6500000000000004 0.0 0.0
F 4.15 0.0 0.0
2

F -1.7000000000000004 0.0 0.0
F 4.2 0.0 0.0
2

F -1.75 0.0 0.0
F 4.25 0.0 0.0
2

F -1.7999999999999998 0.0 0.0
F 4.3 0.0 0.0
2

F -1.8499999999999994 0.0 0.0
F 4.35 0.0 0.0
2

F -1.9000000000000006 0.0 0.0
F 4.4 0.0 0.0
2

F -1.9500000000000002 0.0 0.0
F 4.45 0.0 0.0
2

F -2.0 0.0 0.0
F 4.5 0.0 0.0
2

F -2.0500000000000007 0.0 0.0
F 4.550000000000001 0.0 0.0
2

F -2.0999999999999996 0.0 0.0
F 4.6 0.0 0.0
2

F -2.1500000000000004 0.0 0.0
F 4.65 0.0 0.0
2

F -2.200000000000001 0.0 0.0
F 4.700000000000001 0.0 0.0
2

F -2.25 0.0 0.0
F 4.75 0.0 0.0
2

F -2.3000000000000007 0.0 0.0
F 4.800000000000001 0.0 0.0
2

F -2.3499999999999996 0.0 0.0
F 4.85 0.0 0.0
2

F -2.4000000000000004 0.0 0.0
F 4.9 0.0 0.0
2

F -2.45 0.0 0.0
F 4.95 0.0 0.0
2

F -2.5 0.0 0.0
F 5.0 0.0 0.0
2

F -2.55 0.0 0.0
F 5.05 0.0 0.0
2

F -2.6 0.0 0.0
F 5.1 0.0 0.0
2

F -2.6500000000000004 0.0 0.0
F 5.15 0.0 0.0
2

F -2.7 0.0 0.0
F 5.2 0.0 0.0
