2

I 0.29999999999999977 0.0 0.0
I 4.3 0.0 0.0
2

I 0.25000000000000006 0.0 0.0
I 4.35 0.0 0.0
2

I 0.20000000000000037 0.0 0.0
I 4.3999999999999995 0.0 0.0
2

I 0.15000000000000013 0.0 0.0
I 4.449999999999999 0.0 0.0
2

I 0.09999999999999941 0.0 0.0
I 4.5 0.0 0.0
2

I 0.049999999999999704 0.0 0.0
I 4.55 0.0 0.0
2

I 0.0 0.0 0.0
I 4.6 0.0 0.0
2

I -0.05000000000000022 0.0 0.0
I 4.6499999999999995 0.0 0.0
2

I -0.09999999999999941 0.0 0.0
I 4.699999999999999 0.0 0.0
2

I -0.15000000000000066 0.0 0.0
I 4.75 0.0 0.0
2

I -0.19999999999999984 0.0 0.0
I 4.8 0.0 0.0
2

I -0.25000000000000006 0.0 0.0
I 4.85 0.0 0.0
2

I -0.30000000000000027 0.0 0.0
I 4.9 0.0 0.0
2

I -0.3499999999999995 0.0 0.0
I 4.949999999999999 0.0 0.0
2

I -0.40000000000000074 0.0 0.0
I 5.0 0.0 0.0
2

I -0.4499999999999999 0.0 0.0
I 5.05 0.0 0.0
2

I -0.5000000000000001 0.0 0.0
I 5.1 0.0 0.0
2

I -0.5499999999999994 0.0 0.0
I 5.149999999999999 0.0 0.0
2

I -0.5999999999999995 0.0 0.0
I 5.199999999999999 0.0 0.0
2

I -0.6500000000000008 0.0 0.0
I 5.25 0.0 0.0
2

I -0.7 0.0 0.0
I 5.3 0.0 0.0
2

I -0.7500000000000002 0.0 0.0
I 5.35 0.0 0.0
2

I -0.7999999999999994 0.0 0.0
I 5.3999999999999995 0.0 0.0
2

I -0.8499999999999996 0.0 0.0
I 5.449999999999999 0.0 0.0
2

I -0.9000000000000009 0.0 0.0
I 5.500000000000001 0.0 0.0
2

I -0.9500000000000001 0.0 0.0
I 5.55 0.0 0.0
2

I -1.0000000000000002 0.0 0.0
I 5.6 0.0 0.0
2

I -1.0499999999999994 0.0 0.0
I 5.6499999999999995 0.0 0.0
2

I -1.0999999999999996 0.0 0.0
I 5.699999999999999 0.0 0.0
2

I -1.15 0.0 0.0
I 5.75 0.0 0.0
2

I -1.2000000000000002 0.0 0.0
I 5.8 0.0 0.0
2

I -1.2500000000000004 0.0 0.0
I 5.85 0.0 0.0
2

I -1.3000000000000005 0.0 0.0
I 5.9 0.0 0.0
2

I -1.3500000000000008 0.0 0.0
I 5.95 0.0 0.0
2

I -1.4 0.0 0.0
I 6.0 0.0 0.0
2

I -1.4500000000000002 0.0 0.0
I 6.05 0.0 0.0
2

I -1.5000000000000004 0.0 0.0
I 6.1 0.0 0.0
2

I -1.5500000000000007 0.0 0.0
I 6.15 0.0 0.0
2

I -1.5999999999999999 0.0 0.0
I 6.199999999999999 0.0 0.0
2

I -1.6500000000000001 0.0 0.0
I 6.25 0.0 0.0
2

I -1.7000000000000002 0.0 0.0
I 6.3 0.0 0.0
2

I -1.7500000000000004 0.0 0.0
I 6.3500000000000005 0.0 0.0
2

I -1.7999999999999996 0.0 0.0
I 6.3999999999999995 0.0 0.0
2

I -1.8499999999999999 0.0 0.0
I 6.449999999999999 0.0 0.0
2

I -1.9000000000000001 0.0 0.0
I 6.5 0.0 0.0
2

I -1.9500000000000004 0.0 0.0
I 6.55 0.0 0.0
2

I -1.9999999999999996 0.0 0.0
I 6.599999999999999 0.0 0.0
2

I -2.0500000000000007 0.0 0.0
I 6.65 0.0 0.0
2

I -2.1 0.0 0.0
I 6.699999999999999 0.0 0.0
2

I -2.1500000000000004 0.0 0.0
I 6.75 0.0 0.0
2

I -2.2000000000000015 0.0 0.0
I 6.800000000000001 0.0 0.0
2

I -2.2499999999999996 0.0 0.0
I 6.85 0.0 0.0
2

I -2.3000000000000007 0.0 0.0
I 6.9 0.0 0.0
2

I -2.35 0.0 0.0
I 6.949999999999999 0.0 0.0
2

I -2.4000000000000004 0.0 0.0
I 7.0 0.0 0.0
2

I -2.4500000000000006 0.0 0.0
I 7.05 0.0 0.0
2

I -2.4999999999999996 0.0 0.0
I 7.1 0.0 0.0
2

I -2.55 0.0 0.0
I 7.1499999999999995 0.0 0.0
2

I -2.6 0.0 0.0
I 7.2 0.0 0.0
2

I -2.6500000000000004 0.0 0.0
I 7.25 0.0 0.0
2

I -2.7000000000000006 0.0 0.0
I 7.3 0.0 0.0
