2

K 0.2999999999999999 0.0 0.0
Mg 2.6500000000000004 0.0 0.0
2

K 0.25 0.0 0.0
Mg 2.7 0.0 0.0
2

K 0.20000000000000012 0.0 0.0
Mg 2.75 0.0 0.0
2

K 0.14999999999999994 0.0 0.0
Mg 2.8000000000000003 0.0 0.0
2

K 0.10000000000000006 0.0 0.0
Mg 2.85 0.0 0.0
2

K 0.04999999999999987 0.0 0.0
Mg 2.9000000000000004 0.0 0.0
2

K 0.0 0.0 0.0
Mg 2.95 0.0 0.0
2

K -0.04999999999999987 0.0 0.0
Mg 3.0 0.0 0.0
2

K -0.1000000000000004 0.0 0.0
Mg 3.0500000000000007 0.0 0.0
2

K -0.1499999999999996 0.0 0.0
Mg 3.0999999999999996 0.0 0.0
2

K -0.20000000000000012 0.0 0.0
Mg 3.1500000000000004 0.0 0.0
2

K -0.25 0.0 0.0
Mg 3.2 0.0 0.0
2

K -0.2999999999999999 0.0 0.0
Mg 3.25 0.0 0.0
2

K -0.3500000000000004 0.0 0.0
Mg 3.3000000000000007 0.0 0.0
2

K -0.39999999999999963 0.0 0.0
Mg 3.3499999999999996 0.0 0.0
2

K -0.4500000000000001 0.0 0.0
Mg 3.4000000000000004 0.0 0.0
2

K -0.5 0.0 0.0
Mg 3.45 0.0 0.0
2

K -0.5499999999999998 0.0 0.0
Mg 3.5 0.0 0.0
2

K -0.6000000000000004 0.0 0.0
Mg 3.5500000000000007 0.0 0.0
2

K -0.6499999999999996 0.0 0.0
Mg 3.5999999999999996 0.0 0.0
2

K -0.7000000000000002 0.0 0.0
Mg 3.6500000000000004 0.0 0.0
2

K -0.75 0.0 0.0
Mg 3.7 0.0 0.0
2

K -0.7999999999999999 0.0 0.0
Mg 3.75 0.0 0.0
2

K -0.8500000000000004 0.0 0.0
Mg 3.8000000000000007 0.0 0.0
2

K -0.9000000000000002 0.0 0.0
Mg 3.8500000000000005 0.0 0.0
2

K -0.9500000000000002 0.0 0.0
Mg 3.9000000000000004 0.0 0.0
2

K -1.0 0.0 0.0
Mg 3.95 0.0 0.0
2

K -1.0499999999999998 0.0 0.0
Mg 4.0 0.0 0.0
2

K -1.1000000000000003 0.0 0.0
Mg 4.050000000000001 0.0 0.0
2

K -1.1500000000000004 0.0 0.0
Mg 4.1000000000000005 0.0 0.0
2

K -1.2000000000000002 0.0 0.0
Mg 4.15 0.0 0.0
2

K -1.25 0.0 0.0
Mg 4.2 0.0 0.0
2

K -1.2999999999999998 0.0 0.0
Mg 4.25 0.0 0.0
2

K -1.3500000000000003 0.0 0.0
Mg 4.300000000000001 0.0 0.0
2

K -1.3999999999999997 0.0 0.0
Mg 4.35 0.0 0.0
2

K -1.4500000000000002 0.0 0.0
Mg 4.4 0.0 0.0
2

K -1.5 0.0 0.0
Mg 4.45 0.0 0.0
2

K -1.5499999999999998 0.0 0.0
Mg 4.5 0.0 0.0
2

K -1.5999999999999999 0.0 0.0
Mg 4.55 0.0 0.0
2

K -1.6500000000000004 0.0 0.0
Mg 4.6000000000000005 0.0 0.0
2

K -1.7000000000000002 0.0 0.0
Mg 4.65 0.0 0.0
2

K -1.75 0.0 0.0
Mg 4.7 0.0 0.0
2

K -1.7999999999999998 0.0 0.0
Mg 4.75 0.0 0.0
2

K -1.8500000000000005 0.0 0.0
Mg 4.800000000000001 0.0 0.0
2

K -1.8999999999999997 0.0 0.0
Mg 4.85 0.0 0.0
2

K -1.9500000000000002 0.0 0.0
Mg 4.9 0.0 0.0
2

K -2.000000000000001 0.0 0.0
Mg 4.950000000000001 0.0 0.0
2

K -2.05 0.0 0.0
Mg 5.0 0.0 0.0
2

K -2.1000000000000005 0.0 0.0
Mg 5.050000000000001 0.0 0.0
2

K -2.1499999999999995 0.0 0.0
Mg 5.1 0.0 0.0
2

K -2.2 0.0 0.0
Mg 5.15 0.0 0.0
2

K -2.25 0.0 0.0
Mg 5.2 0.0 0.0
2

K -2.3 0.0 0.0
Mg 5.25 0.0 0.0
2

K -2.3500000000000005 0.0 0.0
Mg 5.300000000000001 0.0 0.0
2

K -2.4000000000000004 0.0 0.0
Mg 5.3500000000000005 0.0 0.0
2

K -2.45 0.0 0.0
Mg 5.4 0.0 0.0
2

K -2.5 0.0 0.0
Mg 5.45 0.0 0.0
2

K -2.55 0.0 0.0
Mg 5.5 0.0 0.0
2

K -2.6000000000000005 0.0 0.0
Mg 5.550000000000001 0.0 0.0
2

K -2.6500000000000004 0.0 0.0
Mg 5.6000000000000005 0.0 0.0
2

K -2.7 0.0 0.0
Mg 5.65 0.0 0.0
