2

Li 0.3 0.0 0.0
Br 1.8804909851999996 0.0 0.0
2

Li 0.24999999999999997 0.0 0.0
Br 1.9304909851999996 0.0 0.0
2

Li 0.19999999999999993 0.0 0.0
Br 1.9804909851999997 0.0 0.0
2

Li 0.14999999999999988 0.0 0.0
Br 2.0304909851999997 0.0 0.0
2

Li 0.10000000000000009 0.0 0.0
Br 2.0804909851999995 0.0 0.0
2

Li 0.0499999999999998 0.0 0.0
Br 2.1304909852 0.0 0.0
2

Li 0.0 0.0 0.0
Br 2.1804909851999996 0.0 0.0
2

Li -0.0499999999999998 0.0 0.0
Br 2.2304909851999994 0.0 0.0
2

Li -0.10000000000000009 0.0 0.0
Br 2.2804909851999997 0.0 0.0
2

Li -0.14999999999999988 0.0 0.0
Br 2.3304909851999995 0.0 0.0
2

Li -0.20000000000000018 0.0 0.0
Br 2.3804909852 0.0 0.0
2

Li -0.24999999999999997 0.0 0.0
Br 2.4304909851999996 0.0 0.0
2

Li -0.29999999999999977 0.0 0.0
Br 2.4804909851999994 0.0 0.0
2

Li -0.35000000000000003 0.0 0.0
Br 2.5304909851999997 0.0 0.0
2

Li -0.39999999999999986 0.0 0.0
Br 2.5804909851999995 0.0 0.0
2

Li -0.4500000000000001 0.0 0.0
Br 2.6304909852 0.0 0.0
2

Li -0.49999999999999994 0.0 0.0
Br 2.6804909851999996 0.0 0.0
2

Li -0.5499999999999997 0.0 0.0
Br 2.7304909851999994 0.0 0.0
2

Li -0.6 0.0 0.0
Br 2.7804909851999997 0.0 0.0
2

Li -0.6499999999999998 0.0 0.0
Br 2.8304909851999995 0.0 0.0
2

Li -0.7000000000000001 0.0 0.0
Br 2.8804909852 0.0 0.0
2

Li -0.7499999999999999 0.0 0.0
Br 2.9304909851999996 0.0 0.0
2

Li -0.7999999999999997 0.0 0.0
Br 2.9804909851999994 0.0 0.0
2

Li -0.85 0.0 0.0
Br 3.0304909851999997 0.0 0.0
2

Li -0.9000000000000002 0.0 0.0
Br 3.0804909852 0.0 0.0
2

Li -0.9500000000000001 0.0 0.0
Br 3.1304909852 0.0 0.0
2

Li -0.9999999999999999 0.0 0.0
Br 3.1804909851999996 0.0 0.0
2

Li -1.0499999999999996 0.0 0.0
Br 3.2304909851999994 0.0 0.0
2

Li -1.0999999999999999 0.0 0.0
Br 3.2804909851999997 0.0 0.0
2

Li -1.1500000000000004 0.0 0.0
Br 3.3304909852 0.0 0.0
2

Li -1.2 0.0 0.0
Br 3.3804909852 0.0 0.0
2

Li -1.2499999999999998 0.0 0.0
Br 3.4304909851999996 0.0 0.0
2

Li -1.3 0.0 0.0
Br 3.4804909852 0.0 0.0
2

Li -1.3500000000000003 0.0 0.0
Br 3.5304909852 0.0 0.0
2

Li -1.3999999999999997 0.0 0.0
Br 3.5804909851999995 0.0 0.0
2

Li -1.45 0.0 0.0
Br 3.6304909852 0.0 0.0
2

Li -1.4999999999999998 0.0 0.0
Br 3.6804909851999996 0.0 0.0
2

Li -1.55 0.0 0.0
Br 3.7304909852 0.0 0.0
2

Li -1.5999999999999994 0.0 0.0
Br 3.780490985199999 0.0 0.0
2

Li -1.6500000000000001 0.0 0.0
Br 3.8304909852 0.0 0.0
2

Li -1.7 0.0 0.0
Br 3.8804909852 0.0 0.0
2

Li -1.7499999999999998 0.0 0.0
Br 3.9304909851999996 0.0 0.0
2

Li -1.7999999999999996 0.0 0.0
Br 3.980490985199999 0.0 0.0
2

Li -1.8500000000000003 0.0 0.0
Br 4.0304909852 0.0 0.0
2

Li -1.8999999999999997 0.0 0.0
Br 4.080490985199999 0.0 0.0
2

Li -1.95 0.0 0.0
Br 4.1304909852 0.0 0.0
2

Li -2.000000000000001 0.0 0.0
Br 4.1804909852000005 0.0 0.0
2

Li -2.05 0.0 0.0
Br 4.230490985199999 0.0 0.0
2

Li -2.1000000000000005 0.0 0.0
Br 4.2804909852 0.0 0.0
2

Li -2.1499999999999995 0.0 0.0
Br 4.330490985199999 0.0 0.0
2

Li -2.1999999999999997 0.0 0.0
Br 4.3804909852 0.0 0.0
2

Li -2.25 0.0 0.0
Br 4.4304909852 0.0 0.0
2

Li -2.2999999999999994 0.0 0.0
Br 4.480490985199999 0.0 0.0
2

Li -2.350000000000001 0.0 0.0
Br 4.5304909852 0.0 0.0
2

Li -2.4 0.0 0.0
Br 4.5804909852 0.0 0.0
2

Li -2.45 0.0 0.0
Br 4.6304909852 0.0 0.0
2

Li -2.4999999999999996 0.0 0.0
Br 4.6804909852 0.0 0.0
2

Li -2.55 0.0 0.0
Br 4.730490985199999 0.0 0.0
2

Li -2.6 0.0 0.0
Br 4.7804909852 0.0 0.0
