2

Li 0.3 0.0 0.0
Cl 1.7273134221999997 0.0 0.0
2

Li 0.25 0.0 0.0
Cl 1.7773134221999998 0.0 0.0
2

Li 0.2 0.0 0.0
Cl 1.8273134221999998 0.0 0.0
2

Li 0.15 0.0 0.0
Cl 1.8773134221999999 0.0 0.0
2

Li 0.09999999999999978 0.0 0.0
Cl 1.9273134222 0.0 0.0
2

Li 0.05 0.0 0.0
Cl 1.9773134221999997 0.0 0.0
2

Li 0.0 0.0 0.0
Cl 2.0273134221999998 0.0 0.0
2

Li -0.049999999999999774 0.0 0.0
Cl 2.0773134221999996 0.0 0.0
2

Li -0.1 0.0 0.0
Cl 2.1273134222 0.0 0.0
2

Li -0.14999999999999977 0.0 0.0
Cl 2.1773134221999997 0.0 0.0
2

Li -0.2 0.0 0.0
Cl 2.2273134222 0.0 0.0
2

Li -0.24999999999999978 0.0 0.0
Cl 2.2773134221999998 0.0 0.0
2

Li -0.3 0.0 0.0
Cl 2.3273134221999996 0.0 0.0
2

Li -0.35000000000000026 0.0 0.0
Cl 2.3773134222 0.0 0.0
2

Li -0.4 0.0 0.0
Cl 2.4273134221999997 0.0 0.0
2

Li -0.45000000000000023 0.0 0.0
Cl 2.4773134222 0.0 0.0
2

Li -0.5 0.0 0.0
Cl 2.5273134221999998 0.0 0.0
2

Li -0.5499999999999998 0.0 0.0
Cl 2.5773134221999996 0.0 0.0
2

Li -0.6 0.0 0.0
Cl 2.6273134222 0.0 0.0
2

Li -0.6499999999999998 0.0 0.0
Cl 2.6773134221999997 0.0 0.0
2

Li -0.7000000000000001 0.0 0.0
Cl 2.7273134222 0.0 0.0
2

Li -0.7499999999999998 0.0 0.0
Cl 2.7773134221999998 0.0 0.0
2

Li -0.8 0.0 0.0
Cl 2.8273134221999996 0.0 0.0
2

Li -0.8500000000000002 0.0 0.0
Cl 2.8773134222 0.0 0.0
2

Li -0.9000000000000005 0.0 0.0
Cl 2.9273134222 0.0 0.0
2

Li -0.9500000000000003 0.0 0.0
Cl 2.9773134222 0.0 0.0
2

Li -1.0 0.0 0.0
Cl 3.0273134221999998 0.0 0.0
2

Li -1.0499999999999998 0.0 0.0
Cl 3.0773134221999996 0.0 0.0
2

Li -1.1 0.0 0.0
Cl 3.1273134222 0.0 0.0
2

Li -1.1500000000000004 0.0 0.0
Cl 3.1773134222 0.0 0.0
2

Li -1.2 0.0 0.0
Cl 3.2273134222 0.0 0.0
2

Li -1.2499999999999998 0.0 0.0
Cl 3.2773134221999998 0.0 0.0
2

Li -1.3000000000000005 0.0 0.0
Cl 3.3273134222 0.0 0.0
2

Li -1.3500000000000008 0.0 0.0
Cl 3.3773134222000003 0.0 0.0
2

Li -1.4000000000000001 0.0 0.0
Cl 3.4273134221999997 0.0 0.0
2

Li -1.4500000000000002 0.0 0.0
Cl 3.4773134222 0.0 0.0
2

Li -1.5 0.0 0.0
Cl 3.5273134221999998 0.0 0.0
2

Li -1.5500000000000003 0.0 0.0
Cl 3.5773134222 0.0 0.0
2

Li -1.5999999999999996 0.0 0.0
Cl 3.6273134221999994 0.0 0.0
2

Li -1.6500000000000004 0.0 0.0
Cl 3.6773134222 0.0 0.0
2

Li -1.7 0.0 0.0
Cl 3.7273134222 0.0 0.0
2

Li -1.7499999999999998 0.0 0.0
Cl 3.7773134221999998 0.0 0.0
2

Li -1.7999999999999996 0.0 0.0
Cl 3.827313422199999 0.0 0.0
2

Li -1.8500000000000003 0.0 0.0
Cl 3.8773134222 0.0 0.0
2

Li -1.9000000000000001 0.0 0.0
Cl 3.9273134221999997 0.0 0.0
2

Li -1.9500000000000002 0.0 0.0
Cl 3.9773134222 0.0 0.0
2

Li -2.000000000000001 0.0 0.0
Cl 4.027313422200001 0.0 0.0
2

Li -2.05 0.0 0.0
Cl 4.0773134222 0.0 0.0
2

Li -2.1000000000000005 0.0 0.0
Cl 4.1273134222 0.0 0.0
2

Li -2.1499999999999995 0.0 0.0
Cl 4.177313422199999 0.0 0.0
2

Li -2.2 0.0 0.0
Cl 4.2273134222 0.0 0.0
2

Li -2.25 0.0 0.0
Cl 4.2773134222 0.0 0.0
2

Li -2.3 0.0 0.0
Cl 4.3273134222 0.0 0.0
2

Li -2.35 0.0 0.0
Cl 4.3773134222 0.0 0.0
2

Li -2.4 0.0 0.0
Cl 4.4273134222 0.0 0.0
2

Li -2.4499999999999997 0.0 0.0
Cl 4.4773134222 0.0 0.0
2

Li -2.4999999999999996 0.0 0.0
Cl 4.5273134222 0.0 0.0
2

Li -2.5499999999999994 0.0 0.0
Cl 4.5773134222 0.0 0.0
2

Li -2.600000000000001 0.0 0.0
Cl 4.6273134222 0.0 0.0
2

Li -2.650000000000001 0.0 0.0
Cl 4.6773134222 0.0 0.0
2

Li -2.7000000000000006 0.0 0.0
Cl 4.7273134222 0.0 0.0
