2

Li 0.29999999999999977 0.0 0.0
I 2.0928627104000004 0.0 0.0
2

Li 0.25000000000000006 0.0 0.0
I 2.1428627104 0.0 0.0
2

Li 0.2000000000000003 0.0 0.0
I 2.1928627104 0.0 0.0
2

Li 0.15000000000000002 0.0 0.0
I 2.2428627104000003 0.0 0.0
2

Li 0.10000000000000002 0.0 0.0
I 2.2928627104 0.0 0.0
2

Li 0.04999999999999974 0.0 0.0
I 2.3428627104000004 0.0 0.0
2

Li 0.0 0.0 0.0
I 2.3928627104 0.0 0.0
2

Li -0.04999999999999974 0.0 0.0
I 2.4428627104 0.0 0.0
2

Li -0.10000000000000002 0.0 0.0
I 2.4928627104000003 0.0 0.0
2

Li -0.14999999999999977 0.0 0.0
I 2.5428627104 0.0 0.0
2

Li -0.20000000000000004 0.0 0.0
I 2.5928627104000004 0.0 0.0
2

Li -0.24999999999999978 0.0 0.0
I 2.6428627103999998 0.0 0.0
2

Li -0.30000000000000004 0.0 0.0
I 2.6928627104000005 0.0 0.0
2

Li -0.3500000000000003 0.0 0.0
I 2.7428627104000007 0.0 0.0
2

Li -0.4000000000000001 0.0 0.0
I 2.7928627104 0.0 0.0
2

Li -0.45000000000000034 0.0 0.0
I 2.8428627104000004 0.0 0.0
2

Li -0.5000000000000001 0.0 0.0
I 2.8928627104 0.0 0.0
2

Li -0.5499999999999998 0.0 0.0
I 2.9428627104 0.0 0.0
2

Li -0.6000000000000001 0.0 0.0
I 2.9928627104000003 0.0 0.0
2

Li -0.6499999999999998 0.0 0.0
I 3.0428627104 0.0 0.0
2

Li -0.7000000000000001 0.0 0.0
I 3.0928627104000004 0.0 0.0
2

Li -0.7499999999999999 0.0 0.0
I 3.1428627104 0.0 0.0
2

Li -0.7999999999999996 0.0 0.0
I 3.1928627103999996 0.0 0.0
2

Li -0.8499999999999999 0.0 0.0
I 3.2428627104000003 0.0 0.0
2

Li -0.9000000000000001 0.0 0.0
I 3.2928627104000006 0.0 0.0
2

Li -0.9500000000000004 0.0 0.0
I 3.342862710400001 0.0 0.0
2

Li -1.0000000000000002 0.0 0.0
I 3.3928627104 0.0 0.0
2

Li -1.0499999999999998 0.0 0.0
I 3.4428627104 0.0 0.0
2

Li -1.1 0.0 0.0
I 3.4928627104000003 0.0 0.0
2

Li -1.1500000000000004 0.0 0.0
I 3.5428627104000006 0.0 0.0
2

Li -1.2000000000000002 0.0 0.0
I 3.5928627104000004 0.0 0.0
2

Li -1.25 0.0 0.0
I 3.6428627104 0.0 0.0
2

Li -1.3000000000000003 0.0 0.0
I 3.6928627104000005 0.0 0.0
2

Li -1.3500000000000005 0.0 0.0
I 3.7428627104000007 0.0 0.0
2

Li -1.3999999999999997 0.0 0.0
I 3.7928627104 0.0 0.0
2

Li -1.45 0.0 0.0
I 3.8428627104000004 0.0 0.0
2

Li -1.5000000000000002 0.0 0.0
I 3.8928627104000006 0.0 0.0
2

Li -1.5500000000000005 0.0 0.0
I 3.942862710400001 0.0 0.0
2

Li -1.5999999999999996 0.0 0.0
I 3.9928627104 0.0 0.0
2

Li -1.6500000000000006 0.0 0.0
I 4.042862710400001 0.0 0.0
2

Li -1.7000000000000002 0.0 0.0
I 4.0928627104 0.0 0.0
2

Li -1.75 0.0 0.0
I 4.1428627104 0.0 0.0
2

Li -1.7999999999999998 0.0 0.0
I 4.1928627104 0.0 0.0
2

Li -1.8500000000000005 0.0 0.0
I 4.242862710400001 0.0 0.0
2

Li -1.8999999999999992 0.0 0.0
I 4.2928627104 0.0 0.0
2

Li -1.95 0.0 0.0
I 4.3428627104 0.0 0.0
2

Li -2.000000000000001 0.0 0.0
I 4.392862710400001 0.0 0.0
2

Li -2.0500000000000003 0.0 0.0
I 4.4428627104 0.0 0.0
2

Li -2.1000000000000005 0.0 0.0
I 4.492862710400001 0.0 0.0
2

Li -2.1499999999999995 0.0 0.0
I 4.5428627104 0.0 0.0
2

Li -2.2 0.0 0.0
I 4.5928627104 0.0 0.0
2

Li -2.25 0.0 0.0
I 4.6428627104 0.0 0.0
2

Li -2.3 0.0 0.0
I 4.6928627104 0.0 0.0
2

Li -2.3500000000000005 0.0 0.0
I 4.742862710400001 0.0 0.0
2

Li -2.4000000000000004 0.0 0.0
I 4.792862710400001 0.0 0.0
2

Li -2.6999999999999997 0.0 0.0
I 5.0928627104 0.0 0.0
