2

Li 0.2999999999999997 0.0 0.0
Li 2.1 0.0 0.0
2

Li 0.23999999999999966 0.0 0.0
Li 2.16 0.0 0.0
2

Li 0.18000000000000016 0.0 0.0
Li 2.2199999999999998 0.0 0.0
2

Li 0.1200000000000001 0.0 0.0
Li 2.28 0.0 0.0
2

Li 0.06000000000000005 0.0 0.0
Li 2.34 0.0 0.0
2

Li 0.0 0.0 0.0
Li 2.4 0.0 0.0
2

Li -0.06000000000000032 0.0 0.0
Li 2.4600000000000004 0.0 0.0
2

Li -0.1200000000000001 0.0 0.0
Li 2.52 0.0 0.0
2

Li -0.1800000000000004 0.0 0.0
Li 2.5800000000000005 0.0 0.0
2

Li -0.23999999999999966 0.0 0.0
Li 2.6399999999999997 0.0 0.0
2

Li -0.30000000000000054 0.0 0.0
Li 2.7000000000000006 0.0 0.0
2

Li -0.35999999999999976 0.0 0.0
Li 2.76 0.0 0.0
2

Li -0.4200000000000001 0.0 0.0
Li 2.82 0.0 0.0
2

Li -0.47999999999999987 0.0 0.0
Li 2.88 0.0 0.0
2

Li -0.5400000000000001 0.0 0.0
Li 2.94 0.0 0.0
2

Li -0.6 0.0 0.0
Li 3.0 0.0 0.0
2

Li -0.6600000000000003 0.0 0.0
Li 3.06 0.0 0.0
2

Li -0.7200000000000001 0.0 0.0
Li 3.12 0.0 0.0
2

Li -0.7799999999999999 0.0 0.0
Li 3.1799999999999997 0.0 0.0
2

Li -0.8400000000000002 0.0 0.0
Li 3.24 0.0 0.0
2

Li -0.8999999999999999 0.0 0.0
Li 3.3 0.0 0.0
2

Li -0.9599999999999997 0.0 0.0
Li 3.36 0.0 0.0
2

Li -1.02 0.0 0.0
Li 3.42 0.0 0.0
2

Li -1.0800000000000003 0.0 0.0
Li 3.4800000000000004 0.0 0.0
2

Li -1.1400000000000001 0.0 0.0
Li 3.54 0.0 0.0
2

Li -1.2 0.0 0.0
Li 3.5999999999999996 0.0 0.0
2

Li -1.2600000000000002 0.0 0.0
Li 3.66 0.0 0.0
2

Li -1.32 0.0 0.0
Li 3.7199999999999998 0.0 0.0
2

Li -1.3800000000000003 0.0 0.0
Li 3.7800000000000002 0.0 0.0
2

Li -1.4400000000000002 0.0 0.0
Li 3.84 0.0 0.0
2

Li -1.5 0.0 0.0
Li 3.9 0.0 0.0
2

Li -1.5600000000000003 0.0 0.0
Li 3.96 0.0 0.0
2

Li -1.6199999999999994 0.0 0.0
Li 4.02 0.0 0.0
2

Li -1.6800000000000004 0.0 0.0
Li 4.08 0.0 0.0
2

Li -1.7400000000000007 0.0 0.0
Li 4.140000000000001 0.0 0.0
2

Li -1.7999999999999994 0.0 0.0
Li 4.199999999999999 0.0 0.0
2

Li -1.8599999999999997 0.0 0.0
Li 4.26 0.0 0.0
2

Li -1.9200000000000006 0.0 0.0
Li 4.32 0.0 0.0
2

Li -1.9799999999999998 0.0 0.0
Li 4.38 0.0 0.0
2

Li -2.0400000000000005 0.0 0.0
Li 4.44 0.0 0.0
2

Li -2.1 0.0 0.0
Li 4.5 0.0 0.0
2

Li -2.1600000000000006 0.0 0.0
Li 4.5600000000000005 0.0 0.0
2

Li -2.22 0.0 0.0
Li 4.62 0.0 0.0
2

Li -2.28 0.0 0.0
Li 4.68 0.0 0.0
2

Li -2.3400000000000003 0.0 0.0
Li 4.74 0.0 0.0
2

Li -2.400000000000001 0.0 0.0
Li 4.800000000000001 0.0 0.0
2

Li -2.460000000000001 0.0 0.0
Li 4.86 0.0 0.0
2

Li -2.5200000000000005 0.0 0.0
Li 4.920000000000001 0.0 0.0
2

Li -2.5800000000000005 0.0 0.0
Li 4.98 0.0 0.0
2

Li -2.6399999999999992 0.0 0.0
Li 5.039999999999999 0.0 0.0
2

Li -2.6999999999999997 0.0 0.0
Li 5.1 0.0 0.0
