2

Li 0.29999999999999993 0.0 0.0
Na 2.31 0.0 0.0
2

Li 0.25000000000000006 0.0 0.0
Na 2.36 0.0 0.0
2

Li 0.19999999999999965 0.0 0.0
Na 2.41 0.0 0.0
2

Li 0.1499999999999998 0.0 0.0
Na 2.46 0.0 0.0
2

Li 0.09999999999999996 0.0 0.0
Na 2.51 0.0 0.0
2

Li 0.04999999999999984 0.0 0.0
Na 2.56 0.0 0.0
2

Li 0.0 0.0 0.0
Na 2.61 0.0 0.0
2

Li -0.05000000000000042 0.0 0.0
Na 2.66 0.0 0.0
2

Li -0.10000000000000026 0.0 0.0
Na 2.71 0.0 0.0
2

Li -0.1500000000000001 0.0 0.0
Na 2.76 0.0 0.0
2

Li -0.19999999999999993 0.0 0.0
Na 2.8099999999999996 0.0 0.0
2

Li -0.24999999999999978 0.0 0.0
Na 2.86 0.0 0.0
2

Li -0.3000000000000002 0.0 0.0
Na 2.91 0.0 0.0
2

Li -0.35000000000000003 0.0 0.0
Na 2.96 0.0 0.0
2

Li -0.39999999999999986 0.0 0.0
Na 3.01 0.0 0.0
2

Li -0.4500000000000003 0.0 0.0
Na 3.06 0.0 0.0
2

Li -0.5000000000000001 0.0 0.0
Na 3.11 0.0 0.0
2

Li -0.5499999999999999 0.0 0.0
Na 3.1599999999999997 0.0 0.0
2

Li -0.5999999999999999 0.0 0.0
Na 3.2099999999999995 0.0 0.0
2

Li -0.6499999999999997 0.0 0.0
Na 3.2599999999999993 0.0 0.0
2

Li -0.6999999999999995 0.0 0.0
Na 3.309999999999999 0.0 0.0
2

Li -0.7499999999999999 0.0 0.0
Na 3.36 0.0 0.0
2

Li -0.8000000000000004 0.0 0.0
Na 3.41 0.0 0.0
2

Li -0.8500000000000002 0.0 0.0
Na 3.46 0.0 0.0
2

Li -0.9 0.0 0.0
Na 3.51 0.0 0.0
2

Li -0.9500000000000004 0.0 0.0
Na 3.5600000000000005 0.0 0.0
2

Li -1.0000000000000002 0.0 0.0
Na 3.6100000000000003 0.0 0.0
2

Li -1.05 0.0 0.0
Na 3.66 0.0 0.0
2

Li -1.0999999999999999 0.0 0.0
Na 3.71 0.0 0.0
2

Li -1.1499999999999997 0.0 0.0
Na 3.76 0.0 0.0
2

Li -1.2000000000000002 0.0 0.0
Na 3.81 0.0 0.0
2

Li -1.2500000000000007 0.0 0.0
Na 3.8600000000000003 0.0 0.0
2

Li -1.3000000000000005 0.0 0.0
Na 3.91 0.0 0.0
2

Li -1.3500000000000003 0.0 0.0
Na 3.9600000000000004 0.0 0.0
2

Li -1.4000000000000001 0.0 0.0
Na 4.01 0.0 0.0
2

Li -1.4500000000000006 0.0 0.0
Na 4.0600000000000005 0.0 0.0
2

Li -1.4999999999999998 0.0 0.0
Na 4.109999999999999 0.0 0.0
2

Li -1.5500000000000003 0.0 0.0
Na 4.16 0.0 0.0
2

Li -1.6 0.0 0.0
Na 4.21 0.0 0.0
2

Li -1.65 0.0 0.0
Na 4.26 0.0 0.0
2

Li -1.6999999999999997 0.0 0.0
Na 4.31 0.0 0.0
2

Li -1.7500000000000002 0.0 0.0
Na 4.36 0.0 0.0
2

Li -1.8 0.0 0.0
Na 4.41 0.0 0.0
2

Li -1.8499999999999999 0.0 0.0
Na 4.46 0.0 0.0
2

Li -1.8999999999999997 0.0 0.0
Na 4.51 0.0 0.0
2

Li -1.9500000000000006 0.0 0.0
Na 4.5600000000000005 0.0 0.0
2

Li -2.0000000000000004 0.0 0.0
Na 4.61 0.0 0.0
2

Li -2.0500000000000003 0.0 0.0
Na 4.66 0.0 0.0
2

Li -2.1 0.0 0.0
Na 4.71 0.0 0.0
2

Li -2.15 0.0 0.0
Na 4.76 0.0 0.0
2

Li -2.2000000000000006 0.0 0.0
Na 4.8100000000000005 0.0 0.0
2

Li -2.2499999999999996 0.0 0.0
Na 4.859999999999999 0.0 0.0
2

Li -2.3000000000000003 0.0 0.0
Na 4.91 0.0 0.0
2

Li -2.35 0.0 0.0
Na 4.96 0.0 0.0
2

Li -2.4 0.0 0.0
Na 5.01 0.0 0.0
2

Li -2.450000000000001 0.0 0.0
Na 5.0600000000000005 0.0 0.0
2

Li -2.4999999999999996 0.0 0.0
Na 5.109999999999999 0.0 0.0
2

Li -2.5500000000000007 0.0 0.0
Na 5.16 0.0 0.0
2

Li -2.600000000000001 0.0 0.0
Na 5.210000000000001 0.0 0.0
2

Li -2.6500000000000004 0.0 0.0
Na 5.26 0.0 0.0
2

Li -2.7000000000000006 0.0 0.0
Na 5.3100000000000005 0.0 0.0
