2

Mg 0.29999999999999993 0.0 0.0
Br 1.9447553162000002 0.0 0.0
2

Mg 0.2499999999999999 0.0 0.0
Br 1.9947553162 0.0 0.0
2

Mg 0.20000000000000012 0.0 0.0
Br 2.0447553162 0.0 0.0
2

Mg 0.14999999999999983 0.0 0.0
Br 2.0947553162 0.0 0.0
2

Mg 0.10000000000000006 0.0 0.0
Br 2.1447553162 0.0 0.0
2

Mg 0.04999999999999978 0.0 0.0
Br 2.1947553162 0.0 0.0
2

Mg 0.0 0.0 0.0
Br 2.2447553162 0.0 0.0
2

Mg -0.04999999999999978 0.0 0.0
Br 2.2947553162 0.0 0.0
2

Mg -0.10000000000000006 0.0 0.0
Br 2.3447553162 0.0 0.0
2

Mg -0.14999999999999983 0.0 0.0
Br 2.3947553162 0.0 0.0
2

Mg -0.20000000000000012 0.0 0.0
Br 2.4447553162 0.0 0.0
2

Mg -0.2499999999999999 0.0 0.0
Br 2.4947553162 0.0 0.0
2

Mg -0.29999999999999966 0.0 0.0
Br 2.5447553162 0.0 0.0
2

Mg -0.35 0.0 0.0
Br 2.5947553162 0.0 0.0
2

Mg -0.39999999999999974 0.0 0.0
Br 2.6447553162 0.0 0.0
2

Mg -0.45 0.0 0.0
Br 2.6947553162 0.0 0.0
2

Mg -0.4999999999999998 0.0 0.0
Br 2.7447553162 0.0 0.0
2

Mg -0.55 0.0 0.0
Br 2.7947553162000003 0.0 0.0
2

Mg -0.5999999999999999 0.0 0.0
Br 2.8447553161999997 0.0 0.0
2

Mg -0.6500000000000001 0.0 0.0
Br 2.8947553162 0.0 0.0
2

Mg -0.7000000000000004 0.0 0.0
Br 2.9447553162000006 0.0 0.0
2

Mg -0.7500000000000002 0.0 0.0
Br 2.9947553162 0.0 0.0
2

Mg -0.7999999999999999 0.0 0.0
Br 3.0447553162 0.0 0.0
2

Mg -0.8500000000000002 0.0 0.0
Br 3.0947553162 0.0 0.0
2

Mg -0.9000000000000005 0.0 0.0
Br 3.1447553162000004 0.0 0.0
2

Mg -0.9500000000000003 0.0 0.0
Br 3.1947553162 0.0 0.0
2

Mg -1.0 0.0 0.0
Br 3.2447553162 0.0 0.0
2

Mg -1.0499999999999998 0.0 0.0
Br 3.2947553162 0.0 0.0
2

Mg -1.1 0.0 0.0
Br 3.3447553162 0.0 0.0
2

Mg -1.1500000000000004 0.0 0.0
Br 3.3947553162000004 0.0 0.0
2

Mg -1.2000000000000002 0.0 0.0
Br 3.4447553162 0.0 0.0
2

Mg -1.25 0.0 0.0
Br 3.4947553162 0.0 0.0
2

Mg -1.3000000000000003 0.0 0.0
Br 3.5447553162000003 0.0 0.0
2

Mg -1.3500000000000005 0.0 0.0
Br 3.5947553162000005 0.0 0.0
2

Mg -1.4 0.0 0.0
Br 3.6447553162 0.0 0.0
2

Mg -1.4500000000000002 0.0 0.0
Br 3.6947553162 0.0 0.0
2

Mg -1.4999999999999998 0.0 0.0
Br 3.7447553162 0.0 0.0
2

Mg -1.55 0.0 0.0
Br 3.7947553162000003 0.0 0.0
2

Mg -1.5999999999999994 0.0 0.0
Br 3.8447553161999997 0.0 0.0
2

Mg -1.6500000000000001 0.0 0.0
Br 3.8947553162000004 0.0 0.0
2

Mg -1.7 0.0 0.0
Br 3.9447553162 0.0 0.0
2

Mg -1.7499999999999998 0.0 0.0
Br 3.9947553161999996 0.0 0.0
2

Mg -1.8 0.0 0.0
Br 4.0447553162 0.0 0.0
2

Mg -1.8500000000000003 0.0 0.0
Br 4.0947553162000005 0.0 0.0
2

Mg -1.8999999999999997 0.0 0.0
Br 4.1447553161999995 0.0 0.0
2

Mg -1.9500000000000004 0.0 0.0
Br 4.1947553162 0.0 0.0
2

Mg -2.0000000000000004 0.0 0.0
Br 4.244755316200001 0.0 0.0
2

Mg -2.05 0.0 0.0
Br 4.2947553162 0.0 0.0
2

Mg -2.1000000000000005 0.0 0.0
Br 4.3447553162000005 0.0 0.0
2

Mg -2.1499999999999995 0.0 0.0
Br 4.3947553161999995 0.0 0.0
2

Mg -2.2 0.0 0.0
Br 4.4447553162 0.0 0.0
2

Mg -2.25 0.0 0.0
Br 4.4947553162 0.0 0.0
2

Mg -2.3 0.0 0.0
Br 4.5447553162 0.0 0.0
2

Mg -2.3500000000000005 0.0 0.0
Br 4.5947553162000005 0.0 0.0
2

Mg -2.4000000000000004 0.0 0.0
Br 4.6447553162 0.0 0.0
2

Mg -2.5 0.0 0.0
Br 4.7447553162 0.0 0.0
2

Mg -2.55 0.0 0.0
Br 4.7947553162 0.0 0.0
2

Mg -2.6000000000000005 0.0 0.0
Br 4.8447553162000005 0.0 0.0
2

Mg -2.6500000000000004 0.0 0.0
Br 4.8947553162 0.0 0.0
2

Mg -2.7 0.0 0.0
Br 4.9447553162 0.0 0.0
