2

Mg 0.3 0.0 0.0
Cl 1.8010917015999997 0.0 0.0
2

Mg 0.24999999999999997 0.0 0.0
Cl 1.8510917015999997 0.0 0.0
2

Mg 0.19999999999999998 0.0 0.0
Cl 1.9010917015999997 0.0 0.0
2

Mg 0.15 0.0 0.0
Cl 1.9510917015999998 0.0 0.0
2

Mg 0.09999999999999999 0.0 0.0
Cl 2.0010917015999996 0.0 0.0
2

Mg 0.04999999999999976 0.0 0.0
Cl 2.0510917016 0.0 0.0
2

Mg 0.0 0.0 0.0
Cl 2.1010917015999997 0.0 0.0
2

Mg -0.04999999999999976 0.0 0.0
Cl 2.1510917015999995 0.0 0.0
2

Mg -0.09999999999999999 0.0 0.0
Cl 2.2010917016 0.0 0.0
2

Mg -0.14999999999999974 0.0 0.0
Cl 2.2510917015999996 0.0 0.0
2

Mg -0.19999999999999998 0.0 0.0
Cl 2.3010917016 0.0 0.0
2

Mg -0.2500000000000002 0.0 0.0
Cl 2.3510917015999997 0.0 0.0
2

Mg -0.3 0.0 0.0
Cl 2.4010917015999995 0.0 0.0
2

Mg -0.3500000000000002 0.0 0.0
Cl 2.4510917016 0.0 0.0
2

Mg -0.39999999999999997 0.0 0.0
Cl 2.5010917015999996 0.0 0.0
2

Mg -0.4500000000000002 0.0 0.0
Cl 2.5510917016 0.0 0.0
2

Mg -0.49999999999999994 0.0 0.0
Cl 2.6010917015999997 0.0 0.0
2

Mg -0.5499999999999997 0.0 0.0
Cl 2.6510917015999995 0.0 0.0
2

Mg -0.6 0.0 0.0
Cl 2.7010917016 0.0 0.0
2

Mg -0.6499999999999997 0.0 0.0
Cl 2.7510917015999996 0.0 0.0
2

Mg -0.7000000000000004 0.0 0.0
Cl 2.8010917016 0.0 0.0
2

Mg -0.7500000000000001 0.0 0.0
Cl 2.8510917015999997 0.0 0.0
2

Mg -0.7999999999999999 0.0 0.0
Cl 2.9010917015999995 0.0 0.0
2

Mg -0.8500000000000002 0.0 0.0
Cl 2.9510917016 0.0 0.0
2

Mg -0.9000000000000004 0.0 0.0
Cl 3.0010917016 0.0 0.0
2

Mg -0.9500000000000002 0.0 0.0
Cl 3.0510917016 0.0 0.0
2

Mg -0.9999999999999999 0.0 0.0
Cl 3.1010917015999997 0.0 0.0
2

Mg -1.0499999999999996 0.0 0.0
Cl 3.1510917015999995 0.0 0.0
2

Mg -1.0999999999999999 0.0 0.0
Cl 3.2010917016 0.0 0.0
2

Mg -1.1500000000000006 0.0 0.0
Cl 3.2510917016000005 0.0 0.0
2

Mg -1.2000000000000004 0.0 0.0
Cl 3.3010917016 0.0 0.0
2

Mg -1.2500000000000002 0.0 0.0
Cl 3.3510917015999997 0.0 0.0
2

Mg -1.3000000000000003 0.0 0.0
Cl 3.4010917016 0.0 0.0
2

Mg -1.3500000000000005 0.0 0.0
Cl 3.4510917016000002 0.0 0.0
2

Mg -1.4 0.0 0.0
Cl 3.5010917015999996 0.0 0.0
2

Mg -1.4500000000000002 0.0 0.0
Cl 3.5510917016 0.0 0.0
2

Mg -1.4999999999999998 0.0 0.0
Cl 3.6010917015999997 0.0 0.0
2

Mg -1.55 0.0 0.0
Cl 3.6510917016 0.0 0.0
2

Mg -1.5999999999999999 0.0 0.0
Cl 3.7010917015999993 0.0 0.0
2

Mg -1.6500000000000006 0.0 0.0
Cl 3.7510917016 0.0 0.0
2

Mg -1.7000000000000004 0.0 0.0
Cl 3.8010917016 0.0 0.0
2

Mg -1.75 0.0 0.0
Cl 3.8510917015999997 0.0 0.0
2

Mg -1.7999999999999998 0.0 0.0
Cl 3.9010917015999995 0.0 0.0
2

Mg -1.85 0.0 0.0
Cl 3.9510917016 0.0 0.0
2

Mg -1.9000000000000004 0.0 0.0
Cl 4.0010917016 0.0 0.0
2

Mg -1.95 0.0 0.0
Cl 4.0510917016 0.0 0.0
2

Mg -1.9999999999999998 0.0 0.0
Cl 4.1010917016 0.0 0.0
2

Mg -2.0500000000000007 0.0 0.0
Cl 4.1510917016 0.0 0.0
2

Mg -2.0999999999999996 0.0 0.0
Cl 4.201091701599999 0.0 0.0
2

Mg -2.300000000000001 0.0 0.0
Cl 4.401091701600001 0.0 0.0
2

Mg -2.45 0.0 0.0
Cl 4.5510917016 0.0 0.0
2

Mg -2.5000000000000004 0.0 0.0
Cl 4.6010917016 0.0 0.0
2

Mg -2.5499999999999994 0.0 0.0
Cl 4.6510917015999995 0.0 0.0
2

Mg -2.6000000000000005 0.0 0.0
Cl 4.7010917016 0.0 0.0
2

Mg -2.65 0.0 0.0
Cl 4.7510917016 0.0 0.0
2

Mg -2.7 0.0 0.0
Cl 4.8010917016 0.0 0.0
