2

Na 0.29999999999999977 0.0 0.0
Br 2.212557618 0.0 0.0
2

Na 0.24999999999999992 0.0 0.0
Br 2.2625576179999998 0.0 0.0
2

Na 0.20000000000000032 0.0 0.0
Br 2.3125576179999996 0.0 0.0
2

Na 0.14999999999999988 0.0 0.0
Br 2.362557618 0.0 0.0
2

Na 0.10000000000000002 0.0 0.0
Br 2.4125576179999997 0.0 0.0
2

Na 0.04999999999999987 0.0 0.0
Br 2.462557618 0.0 0.0
2

Na 0.0 0.0 0.0
Br 2.5125576179999998 0.0 0.0
2

Na -0.04999999999999959 0.0 0.0
Br 2.562557617999999 0.0 0.0
2

Na -0.1000000000000003 0.0 0.0
Br 2.612557618 0.0 0.0
2

Na -0.14999999999999988 0.0 0.0
Br 2.6625576179999997 0.0 0.0
2

Na -0.20000000000000004 0.0 0.0
Br 2.712557618 0.0 0.0
2

Na -0.25000000000000017 0.0 0.0
Br 2.7625576179999998 0.0 0.0
2

Na -0.29999999999999977 0.0 0.0
Br 2.8125576179999996 0.0 0.0
2

Na -0.3499999999999999 0.0 0.0
Br 2.862557618 0.0 0.0
2

Na -0.4000000000000001 0.0 0.0
Br 2.9125576179999997 0.0 0.0
2

Na -0.45000000000000023 0.0 0.0
Br 2.962557618 0.0 0.0
2

Na -0.49999999999999983 0.0 0.0
Br 3.0125576179999998 0.0 0.0
2

Na -0.5499999999999999 0.0 0.0
Br 3.0625576179999996 0.0 0.0
2

Na -0.6000000000000001 0.0 0.0
Br 3.112557618 0.0 0.0
2

Na -0.6499999999999997 0.0 0.0
Br 3.1625576179999997 0.0 0.0
2

Na -0.7000000000000004 0.0 0.0
Br 3.212557618 0.0 0.0
2

Na -0.75 0.0 0.0
Br 3.2625576179999998 0.0 0.0
2

Na -0.7999999999999996 0.0 0.0
Br 3.312557617999999 0.0 0.0
2

Na -0.8500000000000003 0.0 0.0
Br 3.362557618 0.0 0.0
2

Na -0.9000000000000005 0.0 0.0
Br 3.412557618 0.0 0.0
2

Na -0.9500000000000001 0.0 0.0
Br 3.462557618 0.0 0.0
2

Na -1.0000000000000002 0.0 0.0
Br 3.5125576179999998 0.0 0.0
2

Na -1.0499999999999998 0.0 0.0
Br 3.5625576179999996 0.0 0.0
2

Na -1.0999999999999999 0.0 0.0
Br 3.612557618 0.0 0.0
2

Na -1.1500000000000006 0.0 0.0
Br 3.6625576180000006 0.0 0.0
2

Na -1.2000000000000002 0.0 0.0
Br 3.712557618 0.0 0.0
2

Na -1.2499999999999998 0.0 0.0
Br 3.7625576179999998 0.0 0.0
2

Na -1.3000000000000005 0.0 0.0
Br 3.8125576180000005 0.0 0.0
2

Na -1.3500000000000008 0.0 0.0
Br 3.8625576180000003 0.0 0.0
2

Na -1.3999999999999997 0.0 0.0
Br 3.9125576179999992 0.0 0.0
2

Na -1.4500000000000004 0.0 0.0
Br 3.962557618 0.0 0.0
2

Na -1.5 0.0 0.0
Br 4.012557618 0.0 0.0
2

Na -1.5499999999999996 0.0 0.0
Br 4.062557618 0.0 0.0
2

Na -1.5999999999999996 0.0 0.0
Br 4.112557617999999 0.0 0.0
2

Na -1.6500000000000004 0.0 0.0
Br 4.162557618 0.0 0.0
2

Na -1.7 0.0 0.0
Br 4.212557618 0.0 0.0
2

Na -1.7500000000000002 0.0 0.0
Br 4.262557618 0.0 0.0
2

Na -1.7999999999999998 0.0 0.0
Br 4.312557618 0.0 0.0
2

Na -1.8500000000000005 0.0 0.0
Br 4.362557618 0.0 0.0
2

Na -1.8999999999999995 0.0 0.0
Br 4.412557617999999 0.0 0.0
2

Na -1.9500000000000002 0.0 0.0
Br 4.462557618 0.0 0.0
2

Na -2.000000000000001 0.0 0.0
Br 4.512557618000001 0.0 0.0
2

Na -2.05 0.0 0.0
Br 4.562557618 0.0 0.0
2

Na -2.1000000000000005 0.0 0.0
Br 4.612557618 0.0 0.0
2

Na -2.1499999999999995 0.0 0.0
Br 4.662557617999999 0.0 0.0
2

Na -2.2 0.0 0.0
Br 4.712557618 0.0 0.0
2

Na -2.25 0.0 0.0
Br 4.762557618 0.0 0.0
2

Na -2.2999999999999994 0.0 0.0
Br 4.812557618 0.0 0.0
2

Na -2.35 0.0 0.0
Br 4.862557618 0.0 0.0
2

Na -2.4000000000000004 0.0 0.0
Br 4.912557618 0.0 0.0
2

Na -2.45 0.0 0.0
Br 4.962557618 0.0 0.0
2

Na -2.5 0.0 0.0
Br 5.012557618 0.0 0.0
2

Na -2.5500000000000003 0.0 0.0
Br 5.0625576180000005 0.0 0.0
2

Na -2.600000000000001 0.0 0.0
Br 5.112557618000001 0.0 0.0
2

Na -2.650000000000001 0.0 0.0
Br 5.162557618 0.0 0.0
2

Na -2.7 0.0 0.0
Br 5.212557618 0.0 0.0
