2

Na 0.29999999999999993 0.0 0.0
Ca 2.51 0.0 0.0
2

Na 0.2500000000000001 0.0 0.0
Ca 2.5599999999999996 0.0 0.0
2

Na 0.20000000000000026 0.0 0.0
Ca 2.6099999999999994 0.0 0.0
2

Na 0.1499999999999998 0.0 0.0
Ca 2.6599999999999997 0.0 0.0
2

Na 0.09999999999999998 0.0 0.0
Ca 2.7099999999999995 0.0 0.0
2

Na 0.04999999999999983 0.0 0.0
Ca 2.76 0.0 0.0
2

Na 0.0 0.0 0.0
Ca 2.8099999999999996 0.0 0.0
2

Na -0.04999999999999952 0.0 0.0
Ca 2.859999999999999 0.0 0.0
2

Na -0.10000000000000028 0.0 0.0
Ca 2.9099999999999997 0.0 0.0
2

Na -0.1499999999999998 0.0 0.0
Ca 2.9599999999999995 0.0 0.0
2

Na -0.19999999999999996 0.0 0.0
Ca 3.0099999999999993 0.0 0.0
2

Na -0.2500000000000001 0.0 0.0
Ca 3.0599999999999996 0.0 0.0
2

Na -0.2999999999999996 0.0 0.0
Ca 3.1099999999999994 0.0 0.0
2

Na -0.35000000000000037 0.0 0.0
Ca 3.16 0.0 0.0
2

Na -0.3999999999999999 0.0 0.0
Ca 3.2099999999999995 0.0 0.0
2

Na -0.45000000000000007 0.0 0.0
Ca 3.26 0.0 0.0
2

Na -0.5000000000000002 0.0 0.0
Ca 3.3099999999999996 0.0 0.0
2

Na -0.5499999999999997 0.0 0.0
Ca 3.3599999999999994 0.0 0.0
2

Na -0.5999999999999999 0.0 0.0
Ca 3.4099999999999993 0.0 0.0
2

Na -0.65 0.0 0.0
Ca 3.4599999999999995 0.0 0.0
2

Na -0.7000000000000002 0.0 0.0
Ca 3.51 0.0 0.0
2

Na -0.7500000000000003 0.0 0.0
Ca 3.56 0.0 0.0
2

Na -0.7999999999999998 0.0 0.0
Ca 3.6099999999999994 0.0 0.0
2

Na -0.85 0.0 0.0
Ca 3.6599999999999997 0.0 0.0
2

Na -0.9000000000000001 0.0 0.0
Ca 3.7099999999999995 0.0 0.0
2

Na -0.9500000000000003 0.0 0.0
Ca 3.76 0.0 0.0
2

Na -0.9999999999999998 0.0 0.0
Ca 3.809999999999999 0.0 0.0
2

Na -1.0499999999999998 0.0 0.0
Ca 3.8599999999999994 0.0 0.0
2

Na -1.1 0.0 0.0
Ca 3.9099999999999997 0.0 0.0
2

Na -1.1500000000000001 0.0 0.0
Ca 3.96 0.0 0.0
2

Na -1.2000000000000004 0.0 0.0
Ca 4.01 0.0 0.0
2

Na -1.2499999999999998 0.0 0.0
Ca 4.06 0.0 0.0
2

Na -1.3 0.0 0.0
Ca 4.109999999999999 0.0 0.0
2

Na -1.3500000000000008 0.0 0.0
Ca 4.16 0.0 0.0
2

Na -1.3999999999999997 0.0 0.0
Ca 4.209999999999999 0.0 0.0
2

Na -1.4500000000000004 0.0 0.0
Ca 4.26 0.0 0.0
2

Na -1.5 0.0 0.0
Ca 4.31 0.0 0.0
2

Na -1.55 0.0 0.0
Ca 4.359999999999999 0.0 0.0
2

Na -1.5999999999999996 0.0 0.0
Ca 4.409999999999999 0.0 0.0
2

Na -1.6500000000000004 0.0 0.0
Ca 4.46 0.0 0.0
2

Na -1.7 0.0 0.0
Ca 4.51 0.0 0.0
2

Na -1.75 0.0 0.0
Ca 4.56 0.0 0.0
2

Na -1.7999999999999996 0.0 0.0
Ca 4.609999999999999 0.0 0.0
2

Na -1.8500000000000003 0.0 0.0
Ca 4.66 0.0 0.0
2

Na -1.8999999999999992 0.0 0.0
Ca 4.709999999999999 0.0 0.0
2

Na -1.95 0.0 0.0
Ca 4.76 0.0 0.0
2

Na -2.000000000000001 0.0 0.0
Ca 4.8100000000000005 0.0 0.0
2

Na -2.05 0.0 0.0
Ca 4.859999999999999 0.0 0.0
2

Na -2.1000000000000005 0.0 0.0
Ca 4.91 0.0 0.0
2

Na -2.1499999999999995 0.0 0.0
Ca 4.959999999999999 0.0 0.0
2

Na -2.2 0.0 0.0
Ca 5.01 0.0 0.0
2

Na -2.2500000000000004 0.0 0.0
Ca 5.06 0.0 0.0
2

Na -2.3 0.0 0.0
Ca 5.109999999999999 0.0 0.0
2

Na -2.3500000000000005 0.0 0.0
Ca 5.16 0.0 0.0
2

Na -2.4 0.0 0.0
Ca 5.21 0.0 0.0
2

Na -2.45 0.0 0.0
Ca 5.26 0.0 0.0
2

Na -2.4999999999999996 0.0 0.0
Ca 5.31 0.0 0.0
2

Na -2.55 0.0 0.0
Ca 5.359999999999999 0.0 0.0
2

Na -2.6000000000000005 0.0 0.0
Ca 5.41 0.0 0.0
2

Na -2.6500000000000004 0.0 0.0
Ca 5.46 0.0 0.0
2

Na -2.7 0.0 0.0
Ca 5.51 0.0 0.0
