2

Na 0.29999999999999977 0.0 0.0
Na 2.52 0.0 0.0
2

Na 0.2399999999999997 0.0 0.0
Na 2.58 0.0 0.0
2

Na 0.18000000000000024 0.0 0.0
Na 2.6399999999999997 0.0 0.0
2

Na 0.12000000000000016 0.0 0.0
Na 2.6999999999999997 0.0 0.0
2

Na 0.06000000000000008 0.0 0.0
Na 2.76 0.0 0.0
2

Na 0.0 0.0 0.0
Na 2.82 0.0 0.0
2

Na -0.05999999999999977 0.0 0.0
Na 2.8799999999999994 0.0 0.0
2

Na -0.12000000000000016 0.0 0.0
Na 2.94 0.0 0.0
2

Na -0.17999999999999994 0.0 0.0
Na 2.9999999999999996 0.0 0.0
2

Na -0.2399999999999997 0.0 0.0
Na 3.0599999999999996 0.0 0.0
2

Na -0.3000000000000001 0.0 0.0
Na 3.12 0.0 0.0
2

Na -0.3599999999999999 0.0 0.0
Na 3.1799999999999997 0.0 0.0
2

Na -0.41999999999999965 0.0 0.0
Na 3.2399999999999993 0.0 0.0
2

Na -0.48000000000000004 0.0 0.0
Na 3.3 0.0 0.0
2

Na -0.5399999999999998 0.0 0.0
Na 3.3599999999999994 0.0 0.0
2

Na -0.6000000000000002 0.0 0.0
Na 3.42 0.0 0.0
2

Na -0.66 0.0 0.0
Na 3.48 0.0 0.0
2

Na -0.7200000000000004 0.0 0.0
Na 3.54 0.0 0.0
2

Na -0.7799999999999995 0.0 0.0
Na 3.599999999999999 0.0 0.0
2

Na -0.8400000000000005 0.0 0.0
Na 3.6600000000000006 0.0 0.0
2

Na -0.8999999999999997 0.0 0.0
Na 3.7199999999999993 0.0 0.0
2

Na -0.9600000000000001 0.0 0.0
Na 3.78 0.0 0.0
2

Na -1.0199999999999998 0.0 0.0
Na 3.84 0.0 0.0
2

Na -1.0800000000000003 0.0 0.0
Na 3.9 0.0 0.0
2

Na -1.1400000000000001 0.0 0.0
Na 3.96 0.0 0.0
2

Na -1.1999999999999997 0.0 0.0
Na 4.02 0.0 0.0
2

Na -1.2600000000000002 0.0 0.0
Na 4.08 0.0 0.0
2

Na -1.3200000000000005 0.0 0.0
Na 4.140000000000001 0.0 0.0
2

Na -1.3800000000000003 0.0 0.0
Na 4.2 0.0 0.0
2

Na -1.4400000000000002 0.0 0.0
Na 4.26 0.0 0.0
2

Na -1.5000000000000004 0.0 0.0
Na 4.32 0.0 0.0
2

Na -1.5600000000000003 0.0 0.0
Na 4.38 0.0 0.0
2

Na -1.6199999999999994 0.0 0.0
Na 4.4399999999999995 0.0 0.0
2

Na -1.6800000000000004 0.0 0.0
Na 4.5 0.0 0.0
2

Na -1.7400000000000009 0.0 0.0
Na 4.5600000000000005 0.0 0.0
2

Na -1.7999999999999994 0.0 0.0
Na 4.619999999999999 0.0 0.0
2

Na -1.8599999999999997 0.0 0.0
Na 4.68 0.0 0.0
2

Na -1.9200000000000002 0.0 0.0
Na 4.74 0.0 0.0
2

Na -1.98 0.0 0.0
Na 4.8 0.0 0.0
2

Na -2.0400000000000005 0.0 0.0
Na 4.86 0.0 0.0
2

Na -2.1 0.0 0.0
Na 4.92 0.0 0.0
2

Na -2.1600000000000006 0.0 0.0
Na 4.98 0.0 0.0
2

Na -2.22 0.0 0.0
Na 5.04 0.0 0.0
2

Na -2.2800000000000002 0.0 0.0
Na 5.1 0.0 0.0
2

Na -2.3400000000000003 0.0 0.0
Na 5.16 0.0 0.0
2

Na -2.400000000000001 0.0 0.0
Na 5.220000000000001 0.0 0.0
2

Na -2.4600000000000004 0.0 0.0
Na 5.28 0.0 0.0
2

Na -2.5199999999999996 0.0 0.0
Na 5.34 0.0 0.0
2

Na -2.580000000000001 0.0 0.0
Na 5.4 0.0 0.0
2

Na -2.6399999999999992 0.0 0.0
Na 5.459999999999999 0.0 0.0
2

Na -2.6999999999999997 0.0 0.0
Na 5.52 0.0 0.0
