2

Rb 0.2999999999999997 0.0 0.0
Ca 3.0 0.0 0.0
2

Rb 0.2500000000000001 0.0 0.0
Ca 3.05 0.0 0.0
2

Rb 0.20000000000000018 0.0 0.0
Ca 3.0999999999999996 0.0 0.0
2

Rb 0.14999999999999986 0.0 0.0
Ca 3.15 0.0 0.0
2

Rb 0.09999999999999991 0.0 0.0
Ca 3.1999999999999997 0.0 0.0
2

Rb 0.049999999999999954 0.0 0.0
Ca 3.25 0.0 0.0
2

Rb 0.0 0.0 0.0
Ca 3.3 0.0 0.0
2

Rb -0.049999999999999954 0.0 0.0
Ca 3.3499999999999996 0.0 0.0
2

Rb -0.09999999999999991 0.0 0.0
Ca 3.4 0.0 0.0
2

Rb -0.14999999999999986 0.0 0.0
Ca 3.4499999999999997 0.0 0.0
2

Rb -0.19999999999999982 0.0 0.0
Ca 3.4999999999999996 0.0 0.0
2

Rb -0.24999999999999978 0.0 0.0
Ca 3.5499999999999994 0.0 0.0
2

Rb -0.2999999999999997 0.0 0.0
Ca 3.5999999999999996 0.0 0.0
2

Rb -0.3500000000000004 0.0 0.0
Ca 3.6500000000000004 0.0 0.0
2

Rb -0.39999999999999963 0.0 0.0
Ca 3.6999999999999993 0.0 0.0
2

Rb -0.4500000000000003 0.0 0.0
Ca 3.75 0.0 0.0
2

Rb -0.5000000000000002 0.0 0.0
Ca 3.8000000000000003 0.0 0.0
2

Rb -0.5499999999999995 0.0 0.0
Ca 3.849999999999999 0.0 0.0
2

Rb -0.6000000000000002 0.0 0.0
Ca 3.9 0.0 0.0
2

Rb -0.6500000000000001 0.0 0.0
Ca 3.9499999999999997 0.0 0.0
2

Rb -0.7000000000000001 0.0 0.0
Ca 4.0 0.0 0.0
2

Rb -0.75 0.0 0.0
Ca 4.05 0.0 0.0
2

Rb -0.7999999999999999 0.0 0.0
Ca 4.1 0.0 0.0
2

Rb -0.8500000000000006 0.0 0.0
Ca 4.15 0.0 0.0
2

Rb -0.9000000000000006 0.0 0.0
Ca 4.2 0.0 0.0
2

Rb -0.9499999999999998 0.0 0.0
Ca 4.25 0.0 0.0
2

Rb -0.9999999999999998 0.0 0.0
Ca 4.3 0.0 0.0
2

Rb -1.0499999999999998 0.0 0.0
Ca 4.35 0.0 0.0
2

Rb -1.1000000000000005 0.0 0.0
Ca 4.4 0.0 0.0
2

Rb -1.1500000000000004 0.0 0.0
Ca 4.45 0.0 0.0
2

Rb -1.2000000000000004 0.0 0.0
Ca 4.5 0.0 0.0
2

Rb -1.2500000000000002 0.0 0.0
Ca 4.55 0.0 0.0
2

Rb -1.2999999999999996 0.0 0.0
Ca 4.6 0.0 0.0
2

Rb -1.35 0.0 0.0
Ca 4.65 0.0 0.0
2

Rb -1.3999999999999995 0.0 0.0
Ca 4.699999999999999 0.0 0.0
2

Rb -1.4500000000000002 0.0 0.0
Ca 4.75 0.0 0.0
2

Rb -1.5 0.0 0.0
Ca 4.8 0.0 0.0
2

Rb -1.55 0.0 0.0
Ca 4.85 0.0 0.0
2

Rb -1.5999999999999999 0.0 0.0
Ca 4.8999999999999995 0.0 0.0
2

Rb -1.6500000000000006 0.0 0.0
Ca 4.95 0.0 0.0
2

Rb -1.7 0.0 0.0
Ca 5.0 0.0 0.0
2

Rb -1.7499999999999998 0.0 0.0
Ca 5.05 0.0 0.0
2

Rb -1.7999999999999998 0.0 0.0
Ca 5.1 0.0 0.0
2

Rb -1.8500000000000005 0.0 0.0
Ca 5.15 0.0 0.0
2

Rb -1.8999999999999997 0.0 0.0
Ca 5.199999999999999 0.0 0.0
2

Rb -1.9500000000000004 0.0 0.0
Ca 5.25 0.0 0.0
2

Rb -2.000000000000001 0.0 0.0
Ca 5.300000000000001 0.0 0.0
2

Rb -2.0499999999999994 0.0 0.0
Ca 5.35 0.0 0.0
2

Rb -2.1 0.0 0.0
Ca 5.4 0.0 0.0
2

Rb -2.1499999999999995 0.0 0.0
Ca 5.449999999999999 0.0 0.0
2

Rb -2.2 0.0 0.0
Ca 5.5 0.0 0.0
2

Rb -2.25 0.0 0.0
Ca 5.55 0.0 0.0
2

Rb -2.3 0.0 0.0
Ca 5.6 0.0 0.0
2

Rb -2.3500000000000005 0.0 0.0
Ca 5.65 0.0 0.0
2

Rb -2.400000000000001 0.0 0.0
Ca 5.7 0.0 0.0
2

Rb -2.4499999999999997 0.0 0.0
Ca 5.75 0.0 0.0
2

Rb -2.5 0.0 0.0
Ca 5.8 0.0 0.0
2

Rb -2.55 0.0 0.0
Ca 5.85 0.0 0.0
2

Rb -2.6000000000000005 0.0 0.0
Ca 5.9 0.0 0.0
2

Rb -2.6500000000000004 0.0 0.0
Ca 5.95 0.0 0.0
2

Rb -2.7 0.0 0.0
Ca 6.0 0.0 0.0
