2

Rb 0.3 0.0 0.0
Mg 2.75 0.0 0.0
2

Rb 0.24999999999999992 0.0 0.0
Mg 2.8 0.0 0.0
2

Rb 0.2000000000000002 0.0 0.0
Mg 2.8499999999999996 0.0 0.0
2

Rb 0.14999999999999983 0.0 0.0
Mg 2.9 0.0 0.0
2

Rb 0.1000000000000001 0.0 0.0
Mg 2.9499999999999997 0.0 0.0
2

Rb 0.04999999999999971 0.0 0.0
Mg 3.0 0.0 0.0
2

Rb 0.0 0.0 0.0
Mg 3.05 0.0 0.0
2

Rb -0.05000000000000005 0.0 0.0
Mg 3.1 0.0 0.0
2

Rb -0.1000000000000001 0.0 0.0
Mg 3.15 0.0 0.0
2

Rb -0.15000000000000016 0.0 0.0
Mg 3.2 0.0 0.0
2

Rb -0.2000000000000002 0.0 0.0
Mg 3.25 0.0 0.0
2

Rb -0.2500000000000003 0.0 0.0
Mg 3.3000000000000003 0.0 0.0
2

Rb -0.29999999999999966 0.0 0.0
Mg 3.3499999999999996 0.0 0.0
2

Rb -0.35000000000000037 0.0 0.0
Mg 3.4000000000000004 0.0 0.0
2

Rb -0.39999999999999974 0.0 0.0
Mg 3.4499999999999997 0.0 0.0
2

Rb -0.45000000000000046 0.0 0.0
Mg 3.5000000000000004 0.0 0.0
2

Rb -0.49999999999999983 0.0 0.0
Mg 3.55 0.0 0.0
2

Rb -0.5499999999999999 0.0 0.0
Mg 3.5999999999999996 0.0 0.0
2

Rb -0.6 0.0 0.0
Mg 3.65 0.0 0.0
2

Rb -0.65 0.0 0.0
Mg 3.6999999999999997 0.0 0.0
2

Rb -0.7000000000000001 0.0 0.0
Mg 3.75 0.0 0.0
2

Rb -0.7500000000000001 0.0 0.0
Mg 3.8 0.0 0.0
2

Rb -0.7999999999999995 0.0 0.0
Mg 3.849999999999999 0.0 0.0
2

Rb -0.8500000000000002 0.0 0.0
Mg 3.9 0.0 0.0
2

Rb -0.9000000000000002 0.0 0.0
Mg 3.95 0.0 0.0
2

Rb -0.9500000000000003 0.0 0.0
Mg 4.0 0.0 0.0
2

Rb -0.9999999999999997 0.0 0.0
Mg 4.05 0.0 0.0
2

Rb -1.0499999999999998 0.0 0.0
Mg 4.1 0.0 0.0
2

Rb -1.1000000000000005 0.0 0.0
Mg 4.15 0.0 0.0
2

Rb -1.1500000000000006 0.0 0.0
Mg 4.2 0.0 0.0
2

Rb -1.2 0.0 0.0
Mg 4.25 0.0 0.0
2

Rb -1.25 0.0 0.0
Mg 4.3 0.0 0.0
2

Rb -1.3 0.0 0.0
Mg 4.35 0.0 0.0
2

Rb -1.3500000000000008 0.0 0.0
Mg 4.4 0.0 0.0
2

Rb -1.3999999999999995 0.0 0.0
Mg 4.449999999999999 0.0 0.0
2

Rb -1.4500000000000002 0.0 0.0
Mg 4.5 0.0 0.0
2

Rb -1.5000000000000002 0.0 0.0
Mg 4.55 0.0 0.0
2

Rb -1.5499999999999996 0.0 0.0
Mg 4.6 0.0 0.0
2

Rb -1.5999999999999996 0.0 0.0
Mg 4.6499999999999995 0.0 0.0
2

Rb -1.6500000000000004 0.0 0.0
Mg 4.7 0.0 0.0
2

Rb -1.7000000000000004 0.0 0.0
Mg 4.75 0.0 0.0
2

Rb -1.7499999999999998 0.0 0.0
Mg 4.8 0.0 0.0
2

Rb -1.7999999999999998 0.0 0.0
Mg 4.85 0.0 0.0
2

Rb -1.8500000000000005 0.0 0.0
Mg 4.9 0.0 0.0
2

Rb -1.8999999999999992 0.0 0.0
Mg 4.949999999999999 0.0 0.0
2

Rb -1.95 0.0 0.0
Mg 5.0 0.0 0.0
2

Rb -2.000000000000001 0.0 0.0
Mg 5.050000000000001 0.0 0.0
2

Rb -2.0500000000000003 0.0 0.0
Mg 5.1 0.0 0.0
2

Rb -2.100000000000001 0.0 0.0
Mg 5.15 0.0 0.0
2

Rb -2.1499999999999995 0.0 0.0
Mg 5.199999999999999 0.0 0.0
2

Rb -2.2 0.0 0.0
Mg 5.25 0.0 0.0
2

Rb -2.2500000000000004 0.0 0.0
Mg 5.3 0.0 0.0
2

Rb -2.3 0.0 0.0
Mg 5.35 0.0 0.0
2

Rb -2.3500000000000005 0.0 0.0
Mg 5.4 0.0 0.0
2

Rb -2.4000000000000004 0.0 0.0
Mg 5.45 0.0 0.0
2

Rb -2.4499999999999997 0.0 0.0
Mg 5.5 0.0 0.0
2

Rb -2.5 0.0 0.0
Mg 5.55 0.0 0.0
2

Rb -2.55 0.0 0.0
Mg 5.6 0.0 0.0
2

Rb -2.6000000000000005 0.0 0.0
Mg 5.65 0.0 0.0
2

Rb -2.65 0.0 0.0
Mg 5.7 0.0 0.0
2

Rb -2.7 0.0 0.0
Mg 5.75 0.0 0.0
