4

O 0.889713359899054 -1.065773293758185 -0.809020082481125
H 1.154812394399054 -0.396184516458185 -0.1683337488811248
H -0.065991258100946 -1.1515660425581848 -0.7174699811811248
Li 1.623607685900946 -1.686339950541815 -1.5871000224188752
4

O 0.8588518485952179 -1.0396774047254327 -0.77630049055773
H 1.1239508830952178 -0.3700886274254328 -0.13561415695772988
H -0.09685276940478219 -1.1254701535254328 -0.6847503892577299
Li 1.6544691972047822 -1.7124358395745671 -1.61981961434227
4

O 0.8279903372913819 -1.0135815156926808 -0.7435808986343351
H 1.0930893717913819 -0.34399273839268085 -0.10289456503433496
H -0.12771428070861815 -1.0993742644926807 -0.652030797334335
Li 1.6853307085086182 -1.7385317286073192 -1.652539206265665
4

O 0.797128825987546 -0.9874856266599287 -0.7108613067109399
H 1.062227860487546 -0.3178968493599287 -0.07017497311093983
H -0.15857579201245411 -1.0732783754599287 -0.6193112054109399
Li 1.7161922198124542 -1.7646276176400713 -1.68525879818906
4

O 0.76626731468371 -0.9613897376271767 -0.678141714787545
H 1.03136634918371 -0.2918009603271766 -0.03745538118754492
H -0.18943730331629008 -1.0471824864271766 -0.586591613487545
Li 1.7470537311162901 -1.7907235066728233 -1.717978390112455
4

O 0.735405803379874 -0.9352938485944247 -0.6454221228641501
H 1.0005048378798738 -0.26570507129442456 -0.004735789264150015
H -0.22029881462012627 -1.0210865973944245 -0.55387202156415
Li 1.7779152424201263 -1.8168193957055754 -1.75069798203585
4

O 0.7045442920760379 -0.9091979595616725 -0.612702530940755
H 0.9696433265760378 -0.23960918226167252 0.027983802659245115
H -0.2511603259239622 -0.9949907083616725 -0.5211524296407549
Li 1.8087767537239623 -1.8429152847383274 -1.783417573959245
4

O 0.6736827807722019 -0.8831020705289205 -0.5799829390173601
H 0.9387818152722018 -0.21351329322892068 0.06070339458264003
H -0.28202183722779817 -0.9688948193289206 -0.48843283771736
Li 1.8396382650277983 -1.8690111737710793 -1.81613716588264
4

O 0.6428212694683657 -0.8570061814961684 -0.547263347093965
H 0.9079203039683656 -0.18741740419616829 0.09342298650603516
H -0.31288334853163435 -0.9427989302961682 -0.4557132457939649
Li 1.8704997763316344 -1.8951070628038316 -1.848856757806035
4

O 0.6119597581645297 -0.8309102924634164 -0.51454375517057
H 0.8770587926645297 -0.16132151516341633 0.12614257842943005
H -0.3437448598354703 -0.9167030412634163 -0.42299365387057
Li 1.9013612876354704 -1.9212029518365836 -1.88157634972943
4

O 0.5810982468606938 -0.8048144034306643 -0.48182416324717514
H 0.8461972813606939 -0.1352256261306645 0.15886217035282496
H -0.37460637113930606 -0.8906071522306644 -0.39027406194717507
Li 1.9322227989393062 -1.9472988408693355 -1.914295941652825
4

O 0.550236735556858 -0.7787185143979125 -0.44910457132378023
H 0.815335770056858 -0.10912973709791243 0.19158176227621987
H -0.405467882443142 -0.8645112631979124 -0.35755447002378016
Li 1.9630843102431421 -1.9733947299020875 -1.9470155335762198
4

O 0.5193752242530221 -0.7526226253651604 -0.4163849794003853
H 0.784474258753022 -0.08303384806516037 0.22430135419961478
H -0.436329393746978 -0.8384153741651603 -0.32483487810038525
Li 1.993945821546978 -1.9994906189348396 -1.9797351254996147
4

O 0.4885137129491859 -0.7265267363324082 -0.3836653874769902
H 0.7536127474491856 -0.05693795903240831 0.2570209461230099
H -0.4671909050508144 -0.8123194851324083 -0.2921152861769901
Li 2.0248073328508145 -2.0255865079675917 -2.01245471742301
4

O 0.4576522016453499 -0.7004308472996563 -0.3509457955535953
H 0.7227512361453496 -0.030842069999656246 0.2897405380464048
H -0.49805241635465036 -0.7862235960996562 -0.2593956942535952
Li 2.0556688441546505 -2.0516823970003437 -2.0451743093464048
4

O 0.42679069034151396 -0.6743349582669043 -0.3182262036302004
H 0.6918897248415137 -0.004746180966904184 0.3224601299697997
H -0.5289139276584863 -0.7601277070669041 -0.2266761023302003
Li 2.0865303554584864 -2.077778286033096 -2.0778939012697997
4

O 0.39592917903767777 -0.6482390692341522 -0.28550661170680525
H 0.6610282135376777 0.021349708065847878 0.3551797218931951
H -0.5597754389623223 -0.7340318180341521 -0.19395651040680495
Li 2.1173918667623224 -2.103874175065848 -2.110613493193195
4

O 0.3650676677338418 -0.6221431802014001 -0.25278701978341034
H 0.6301667022338417 0.04744559709859994 0.38789931381658954
H -0.5906369502661583 -0.7079359290014 -0.16123691848341049
Li 2.1482533780661583 -2.1299700640986 -2.1433330851165895
4

O 0.33420615643000584 -0.5960472911686481 -0.22006742786001543
H 0.5993051909300058 0.07354148613135156 0.42061890573998445
H -0.6214984615699942 -0.6818400399686484 -0.12851732656001558
Li 2.1791148893699943 -2.1560659531313515 -2.1760526770399844
4

O 0.30334464512616965 -0.569951402135896 -0.1873478359366203
H 0.5684436796261698 0.09963737516410406 0.4533384976633798
H -0.6523599728738302 -0.6557441509358959 -0.09579773463662022
Li 2.2099764006738303 -2.182161842164104 -2.2087722689633797
4

O 0.2724831338223339 -0.5438555131031442 -0.1546282440132256
H 0.5375821683223339 0.12573326419685568 0.4860580895867745
H -0.6832214841776661 -0.6296482619031443 -0.06307814271322554
Li 2.2408379119776662 -2.2082577311968556 -2.241491860886774
4

O 0.24162162251849795 -0.5177596240703921 -0.12190865208983048
H 0.5067206570184979 0.15182915322960774 0.5187776815101697
H -0.7140829954815021 -0.6035523728703922 -0.030358550789830407
Li 2.271699423281502 -2.2343536202296077 -2.2742114528101696
4

O 0.21076011121466198 -0.49166373503764005 -0.08918906016643557
H 0.4758591457146619 0.1779250422623598 0.5514972734335646
H -0.7449445067853381 -0.5774564838376401 0.002361041133564501
Li 2.302560934585338 -2.2604495092623598 -2.3069310447335645
4

O 0.1798985999108258 -0.46556784600488776 -0.056469468243040444
H 0.44499763441082574 0.20402093129511187 0.5842168653569597
H -0.7758060180891743 -0.5513605948048881 0.03508063305695963
Li 2.3334224458891746 -2.286545398295112 -2.33965063665696
4

O 0.14903708860698983 -0.4394719569721359 -0.023749876319645535
H 0.4141361231069898 0.23011682032786393 0.6169364572803546
H -0.8066675293930102 -0.525264705772136 0.06780022498035454
Li 2.3642839571930105 -2.312641287327864 -2.3723702285803547
4

O 0.11817557730315387 -0.41337606793938386 0.008969715603749373
H 0.3832746118031538 0.256212709360616 0.6496560492037495
H -0.8375290406968462 -0.49916881673938396 0.10051981690374945
Li 2.395145468496846 -2.338737176360616 -2.4050898205037496
4

O 0.08731406599931768 -0.3872801789066318 0.041689307527144726
H 0.3524131004993176 0.2823085983933681 0.6823756411271449
H -0.8683905520006824 -0.4730729277066319 0.1332394088271448
Li 2.4260069798006825 -2.364833065393368 -2.4378094124271446
4

O 0.056452554695481716 -0.36118428987387974 0.07440889945053963
H 0.32155158919548166 0.30840448742612014 0.7150952330505398
H -0.8992520633045183 -0.44697703867387983 0.1659590007505397
Li 2.4568684911045184 -2.39092895442612 -2.4705290043505395
4

O 0.02559104339164553 -0.33508840084112745 0.10712849137393476
H 0.29069007789164547 0.33450037645887243 0.7478148249739349
H -0.9301135746083545 -0.42088114964112755 0.19867859267393484
Li 2.4877300024083544 -2.417024843458872 -2.503248596273935
4

O -0.005270467912190213 -0.30899251180837584 0.13984808329732945
H 0.25982856658780973 0.36059626549162405 0.7805344168973296
H -0.9609750859121903 -0.39478526060837593 0.23139818459732953
Li 2.5185915137121904 -2.443120732491624 -2.5359681881973293
4

O -0.03613197921602618 -0.2828966227756238 0.17256767522072414
H 0.22896705528397376 0.3866921545243761 0.8132540088207243
H -0.9918365972160262 -0.36868937157562387 0.2641177765207242
Li 2.5494530250160263 -2.4692166215243763 -2.568687780120724
4

O -0.06699349051986236 -0.2568007337428717 0.2052872671441195
H 0.19810554398013758 0.41278804355712817 0.8459736007441196
H -1.0226981085198625 -0.3425934825428718 0.29683736844411956
Li 2.5803145363198623 -2.4953125105571283 -2.6014073720441195
4

O -0.0978550018236981 -0.23070484471011965 0.2380068590675144
H 0.16724403267630183 0.43888393258988023 0.8786931926675146
H -1.0535596198236983 -0.31649759351011975 0.3295569603675145
Li 2.6111760476236983 -2.5214083995898804 -2.6341269639675144
4

O -0.1287165131275343 -0.20460895567736737 0.2707264509909093
H 0.13638252137246565 0.4649798216226325 0.9114127845909099
H -1.0844211311275345 -0.29040170447736746 0.3622765522909098
Li 2.6420375589275347 -2.5475042886226325 -2.66684655589091
4

O -0.15957802443137026 -0.17851306664461553 0.3034460429143042
H 0.10552101006862968 0.49107571065538436 0.9441323765143048
H -1.1152826424313704 -0.2643058154446156 0.39499614421430473
Li 2.6728990702313706 -2.5736001776553845 -2.6995661478143047
4

O -0.19043953573520622 -0.15241717761186346 0.3361656348376991
H 0.07465949876479372 0.5171715996881364 0.9768519684376997
H -1.1461441537352064 -0.23820992641186356 0.42771573613769964
Li 2.7037605815352066 -2.5996960666881366 -2.7322857397376996
4

O -0.2213010470390422 -0.12632128857911162 0.36888522676109403
H 0.043797987460957755 0.5432674887208887 1.0095715603610946
H -1.1770056650390424 -0.21211403737911128 0.46043532806109455
Li 2.734622092839042 -2.6257919557208886 -2.7650053316610945
4

O -0.25216255834287815 -0.10022539954635934 0.4016048186844894
H 0.01293647615712179 0.5693633777536405 1.0422911522844895
H -1.2078671763428783 -0.18601814834635944 0.49315491998448946
Li 2.7654836041428785 -2.6518878447536407 -2.7977249235844894
4

O -0.2830240696467141 -0.07412951051360728 0.4343244106078843
H -0.017925035146714174 0.5954592667863926 1.0750107442078844
H -1.2387286876467143 -0.15992225931360737 0.5258745119078844
Li 2.7963451154467145 -2.6779837337863928 -2.8304445155078843
4

O -0.3138855809505501 -0.04803362148085544 0.4670440025312792
H -0.04878654645055014 0.6215551558191444 1.1077303361312794
H -1.2695901989505503 -0.13382637028085553 0.5585941038312793
Li 2.8272066267505505 -2.7040796228191444 -2.8631641074312792
4

O -0.34474709225438604 -0.021937732448103375 0.4997635944546741
H -0.0796480577543861 0.6476510448518965 1.1404499280546743
H -1.3004517102543862 -0.10773048124810347 0.5913136957546742
Li 2.8580681380543864 -2.7301755118518964 -2.895883699354674
4

O -0.375608603558222 0.004158156584648465 0.532483186378069
H -0.11050956905822207 0.6737469338846483 1.1731695199780692
H -1.3313132215582222 -0.08163459221535163 0.6240332876780691
Li 2.8889296493582224 -2.7562714008846485 -2.928603291278069
4

O -0.4064701148620584 0.03025404561740097 0.5652027783014644
H -0.14137108036205848 0.6998428229174009 1.2058891119014645
H -1.3621747328620586 -0.055538703182599125 0.6567528796014644
Li 2.919791160662059 -2.782367289917401 -2.9613228832014644
4

O -0.4373316261658944 0.05634993465015281 0.5979223702248593
H -0.17223259166589444 0.7259387119501527 1.238608703824859
H -1.3930362441658946 -0.029442814149847285 0.6894724715248589
Li 2.9506526719658943 -2.8084631789501526 -2.994042475124859
4

O -0.46819313746973035 0.08244582368290487 0.6306419621482542
H -0.2030941029697304 0.7520346009829048 1.2713282957482543
H -1.4238977554697305 -0.003346925117095223 0.7221920634482543
Li 2.9815141832697307 -2.8345590679829047 -3.0267620670482542
4

O -0.49905464877356676 0.10854171271565716 0.6633615540716495
H -0.23395561427356681 0.778130490015657 1.3040478876716497
H -1.454759266773567 0.02274896391565706 0.7549116553716496
Li 3.0123756945735667 -2.860654957015657 -3.0594816589716496
4

O -0.5299161600774023 0.13463760174840878 0.696081145995044
H -0.26481712557740233 0.8042263790484087 1.3367674795950442
H -1.4856207780774024 0.04884485294840868 0.7876312472950441
Li 3.0432372058774027 -2.886750846048409 -3.092201250895044
4

O -0.5607776713812387 0.16073349078116106 0.7288007379184394
H -0.29567863688123874 0.8303222680811609 1.3694870715184395
H -1.5164822893812389 0.07494074198116096 0.8203508392184394
Li 3.0740987171812386 -2.912846735081161 -3.1249208428184394
4

O -0.5916391826850746 0.18682937981391312 0.7615203298418343
H -0.3265401481850747 0.8564181571139134 1.4022066634418344
H -1.5473438006850748 0.10103663101391347 0.8530704311418343
Li 3.1049602284850746 -2.9389426241139134 -3.1576404347418343
4

O -0.6225006939889102 0.21292526884666518 0.7942399217652292
H -0.35740165948891023 0.8825140461466651 1.4349262553652293
H -1.5782053119889103 0.1271325200466651 0.8857900230652292
Li 3.1358217397889105 -2.965038513146665 -3.190360026665229
4

O -0.6533622052927461 0.2390211578794168 0.8269595136886236
H -0.3882631707927462 0.9086099351794167 1.4676458472886234
H -1.6090668232927463 0.1532284090794167 0.9185096149886233
Li 3.1666832510927465 -2.9911344021794166 -3.2230796185886237
