4

O 0.18716489459086727 -0.6119202412487155 -0.2646608404717512
H 0.9790225604908672 -0.07729922424871517 -0.17904906737175125
H 0.5066729999908672 -1.3298264556487152 -0.8406571720717513
I 1.9237043540091325 -2.325617883751285 -1.9627861770282486
4

O 0.156786755615117 -0.5819416854122716 -0.23495469864331442
H 0.948644421515117 -0.04732066841227135 -0.14934292554331446
H 0.476294861015117 -1.2998478998122713 -0.8109510302433145
I 1.9540824929848828 -2.3555964395877287 -1.9924923188566854
4

O 0.12640861663936676 -0.5519631295758276 -0.20524855681487764
H 0.9182662825393667 -0.01734211257582753 -0.11963678371487746
H 0.4459167220393667 -1.2698693439758275 -0.7812448884148775
I 1.984460631960633 -2.3855749954241725 -2.0221984606851224
4

O 0.0960304776636165 -0.5219845737393836 -0.17554241498644063
H 0.8878881435636164 0.012636443260616734 -0.08993064188644045
H 0.41553858306361646 -1.2398907881393832 -0.7515387465864405
I 2.0148387709363833 -2.4155535512606168 -2.0519046025135594
4

O 0.06565233868786624 -0.4920060179029395 -0.14583627315800385
H 0.8575100045878662 0.042614999097060555 -0.0602245000580039
H 0.3851604440878662 -1.2099122323029394 -0.7218326047580039
I 2.0452169099121336 -2.4455321070970606 -2.081610744341996
4

O 0.03527419971211554 -0.46202746206649525 -0.11613013132956684
H 0.8271318656121155 0.07259355493350482 -0.030518358229566892
H 0.3547823051121155 -1.1799336764664952 -0.6921264629295669
I 2.0755950488878843 -2.475510662933505 -2.111316886170433
4

O 0.004896060736365282 -0.43204890623005143 -0.08642398950112984
H 0.7967537266363652 0.10257211076994864 -0.0008122164011298881
H 0.32440416613636525 -1.1499551206300513 -0.6624203211011299
I 2.1059731878636345 -2.5054892187699487 -2.14102302799887
4

O -0.025482078239384975 -0.4020703503936076 -0.05671784767269328
H 0.766375587660615 0.13255066660639248 0.028893925427306674
H 0.294026027160615 -1.1199765647936075 -0.6327141792726934
I 2.136351326839385 -2.5354677746063925 -2.1707291698273066
4

O -0.05586021721513523 -0.37209179455716335 -0.027011705844256273
H 0.7359974486848647 0.16252922244283674 0.058600067255743675
H 0.26364788818486473 -1.0899980089571633 -0.6030080374442564
I 2.166729465815135 -2.5654463304428368 -2.2004353116557436
4

O -0.08623835619088593 -0.3421132387207195 0.002694435984180732
H 0.705619309709114 0.19250777827928056 0.08830620908418069
H 0.23326974920911403 -1.0600194531207194 -0.5733018956158193
I 2.1971076047908857 -2.5954248862792806 -2.2301414534841806
4

O -0.11661649516663575 -0.3121346828842757 0.03240057781261729
H 0.6752411707333642 0.22248633411572438 0.11801235091261725
H 0.20289161023336422 -1.0300408972842756 -0.5435957537873828
I 2.2274857437666356 -2.6254034421157244 -2.259847595312617
4

O -0.14699463414238645 -0.28215612704783144 0.0621067196410543
H 0.6448630317576135 0.25246488995216865 0.14771849274105425
H 0.17251347125761352 -1.0000623414478313 -0.5138896119589458
I 2.2578638827423863 -2.6553819979521687 -2.289553737141054
4

O -0.1773727731181367 -0.2521775712113872 0.0918128614694913
H 0.6144848927818632 0.2824434457886129 0.17742463456949126
H 0.14213533228186326 -0.9700837856113871 -0.4841834701305088
I 2.2882420217181365 -2.685360553788613 -2.319259878969491
4

O -0.20775091209388696 -0.2221990153749438 0.12151900329792786
H 0.584106753806113 0.3124220016250563 0.20713077639792782
H 0.111757193306113 -0.9401052297749437 -0.4544773283020722
I 2.3186201606938868 -2.7153391096250563 -2.3489660207979277
4

O -0.23812905106963722 -0.19222045953849953 0.15122514512636487
H 0.5537286148303627 0.34240055746150055 0.23683691822636482
H 0.08137905433036274 -0.9101266739384994 -0.4247711864736352
I 2.348998299669637 -2.7453176654615006 -2.3786721626263647
4

O -0.26850719004538703 -0.1622419037020557 0.18093128695480143
H 0.5233504758546129 0.3723791132979444 0.2665430600548014
H 0.05100091535461293 -0.8801481181020556 -0.39506504464519865
I 2.379376438645387 -2.7752962212979444 -2.4083783044548013
4

O -0.2988853290211382 -0.132263347865611 0.21063742878323888
H 0.49297233687886177 0.40235766913438864 0.29624920188323883
H 0.020622776378861785 -0.8501695622656114 -0.3653589028167612
I 2.409754577621138 -2.8052747771343887 -2.4380844462832387
4

O -0.32926346799688844 -0.10228479202916718 0.24034357061167588
H 0.46259419790311107 0.4323362249708329 0.32595534371167584
H -0.009755362596888917 -0.8201910064291671 -0.3356527609883242
I 2.4401327165968887 -2.835253332970833 -2.4677905881116757
4

O -0.3596416069726387 -0.07230623619272336 0.27004971244011244
H 0.43221605892736126 0.4623147808072767 0.3556614855401124
H -0.04013350157263873 -0.7902124505927233 -0.30594661915988763
I 2.4705108555726385 -2.8652318888072767 -2.4974967299401123
4

O -0.3900197459483885 -0.04232768035627954 0.299755854268549
H 0.40183791995161144 0.49229333664372055 0.38536762736854896
H -0.07051164054838854 -0.7602338947562794 -0.2762404773314511
I 2.5008889945483883 -2.8952104446437206 -2.527202871768549
4

O -0.42039788492413965 -0.012349124519835275 0.32946199609698645
H 0.3714597809758603 0.5222718924801648 0.4150737691969864
H -0.10088977952413969 -0.7302553389198352 -0.24653433550301362
I 2.5312671335241395 -2.925189000480165 -2.5569090135969863
4

O -0.45077602389988947 0.017629431316608546 0.359168137925423
H 0.3410816420001105 0.5522504483166086 0.44477991102542297
H -0.1312679184998895 -0.7002767830833914 -0.21682819367457706
I 2.5616452724998893 -2.9551675563166087 -2.586615155425423
4

O -0.48115416287564017 0.04760798715305281 0.38887427975386
H 0.3107035030243598 0.5822290041530529 0.47448605285386
H -0.1616460574756402 -0.6702982272469471 -0.18712205184614006
I 2.59202341147564 -2.985146112153053 -2.61632129725386
4

O -0.5115323018513904 0.07758654298949708 0.418580421582297
H 0.2803253640486095 0.6122075599894967 0.5041921946822969
H -0.19202419645139046 -0.6403196714105033 -0.15741591001770305
I 2.6224015504513902 -3.0151246679894967 -2.646027439082297
4

O -0.5419104408271407 0.10756509882594045 0.4482865634107336
H 0.24994722507285927 0.6421861158259405 0.5338983365107339
H -0.22240233542714072 -0.6103411155740595 -0.12770976818926605
I 2.6527796894271405 -3.0451032238259406 -2.675733580910734
4

O -0.5722885798028909 0.13754365466238472 0.4779927052391706
H 0.219569086097109 0.6721646716623848 0.5636044783391709
H -0.252780474402891 -0.5803625597376152 -0.09800362636082904
I 2.6831578284028907 -3.075081779662385 -2.705439722739171
4

O -0.6026667187786416 0.16752221049882898 0.5076988470676076
H 0.1891909471213583 0.7021432274988291 0.5933106201676079
H -0.2831586133786417 -0.5503840039011709 -0.06829748453239204
I 2.7135359673786414 -3.105060335498829 -2.735145864567608
4

O -0.6330448577543919 0.1975007663352728 0.5374049888960446
H 0.15881280814560805 0.7321217833352729 0.6230167619960449
H -0.31353675235439193 -0.5204054480647271 -0.038591342703955034
I 2.7439141063543917 -3.135038891335273 -2.764852006396045
4

O -0.6634229967301422 0.22747932217171662 0.5671111307244812
H 0.1284346691698578 0.7621003391717167 0.6527229038244811
H -0.3439148913301422 -0.4904268922282833 -0.008885200875518917
I 2.774292245330142 -3.1650174471717167 -2.794558148224481
4

O -0.693801135705892 0.25745787800816045 0.5968172725529177
H 0.09805653019410798 0.7920788950081605 0.6824290456529181
H -0.374293030305892 -0.46044833639183946 0.020820940952918088
I 2.8046703843058918 -3.1949960030081606 -2.824264290052918
4

O -0.7241792746816422 0.2874364338446047 0.6265234143813547
H 0.06767839121835728 0.8220574508446048 0.7121351874813551
H -0.4046711692816427 -0.4304697805553952 0.05052708278135509
I 2.8350485232816425 -3.224974558844605 -2.853970431881355
4

O -0.7545574136573934 0.317414989681049 0.6562295562097922
H 0.03730025224260658 0.8520360066810491 0.7418413293097921
H -0.4350493082573934 -0.40049122471895093 0.0802332246097921
I 2.865426662257393 -3.254953114681049 -2.883676573709792
4

O -0.7849355526331432 0.3473935455174928 0.6859356980382287
H 0.006922113266856766 0.8820145625174929 0.7715474711382291
H -0.4654274472331432 -0.3705126688825071 0.1099393664382291
I 2.895804801233143 -3.284931670517493 -2.913382715538229
4

O -0.8153136916088934 0.3773721013539366 0.7156418398666653
H -0.02345602570889349 0.9119931183539367 0.8012536129666652
H -0.4958055862088935 -0.3405341130460633 0.13964550826666522
I 2.9261829402088932 -3.3149102263539367 -2.943088857366665
4

O -0.8456918305846437 0.40735065719038044 0.7453479816951027
H -0.05383416468464375 0.941971674190381 0.8309597547951022
H -0.5261837251846437 -0.310555557209619 0.16935165009510222
I 2.9565610791846435 -3.344888782190381 -2.972794999195102
4

O -0.8760699695603944 0.4373292130268247 0.7750541235235398
H -0.08421230366039445 0.9719502300268248 0.8606658966235392
H -0.5565618641603944 -0.2805770013731752 0.19905779192353923
I 2.986939218160394 -3.374867338026825 -3.002501141023539
4

O -0.9064481085361447 0.46730776886326897 0.8047602653519768
H -0.11459044263614471 1.001928785863269 0.8903720384519762
H -0.5869400031361447 -0.25059844553673094 0.22876393375197623
I 3.0173173571361445 -3.404845893863269 -3.032207282851976
4

O -0.9368262475118949 0.4972863246997128 0.8344664071804133
H -0.14496858161189496 1.0319073416997129 0.9200781802804132
H -0.617318142111895 -0.22061988970028712 0.25847007558041324
I 3.0476954961118947 -3.434824449699713 -3.061913424680413
4

O -0.9672043864876447 0.5272648805361562 0.8641725490088499
H -0.17534672058764433 1.0618858975361563 0.9497843221088493
H -0.6476962810876443 -0.19064133386384374 0.28817621740884936
I 3.0780736350876445 -3.4648030055361563 -3.0916195665088493
4

O -0.9975825254633959 0.5572434363726009 0.8938786908372873
H -0.20572485956339548 1.0918644533726005 0.9794904639372877
H -0.6780744200633955 -0.16066277802739948 0.3178823592372877
I 3.1084517740633952 -3.494781561372601 -3.121325708337287
4

O -1.0279606644391461 0.5872219922090451 0.9235848326657243
H -0.23610299853914574 1.1218430092090448 1.0091966057657247
H -0.7084525590391457 -0.1306842221909552 0.3475885010657247
I 3.138829913039146 -3.5247601172090453 -3.151031850165724
4

O -1.0583388034148964 0.6172005480454885 0.9532909744941609
H -0.266481137514896 1.151821565045489 1.0389027475941603
H -0.738830698014896 -0.10070566635451095 0.37729464289416037
I 3.1692080520148957 -3.554738673045489 -3.1807379919941603
4

O -1.0887169423906462 0.6471791038819323 0.9829971163225975
H -0.2968592764906467 1.1818001208819329 1.0686088894225978
H -0.7692088369906467 -0.07072711051806713 0.4070007847225978
I 3.199586190990646 -3.5847172288819324 -3.2104441338225973
4

O -1.1190950813663973 0.677157659718377 1.012703258151035
H -0.32723741546639695 1.2117786767183767 1.0983150312510344
H -0.7995869759663969 -0.040748554681623306 0.4367069265510344
I 3.229964329966397 -3.614695784718377 -3.2401502756510343
4

O -1.1494732203421476 0.7071362155548213 1.042409399979472
H -0.3576155544421481 1.241757232554821 1.1280211730794714
H -0.8299651149421481 -0.01076999884517904 0.4664130683794714
I 3.2603424689421474 -3.644674340554821 -3.2698564174794713
4

O -1.1798513593178979 0.7371147713912647 1.0721155418079085
H -0.38799369341789747 1.2717357883912652 1.1577273149079088
H -0.8603432539178975 0.019208556991265224 0.49611921020790883
I 3.2907206079178977 -3.6746528963912652 -3.2995625593079083
4

O -1.2102294982936477 0.7670933272277085 1.101821683636345
H -0.4183718323936473 1.301714344227709 1.1874334567363445
H -0.8907213928936473 0.049187112827709045 0.5258253520363445
I 3.3210987468936475 -3.7046314522277086 -3.3292687011363444
4

O -1.2406076372693984 0.7970718830641532 1.1315278254647825
H -0.448749971369398 1.3316929000641529 1.2171395985647828
H -0.921099531869398 0.07916566866415287 0.5555314938647828
I 3.351476885869398 -3.7346100080641533 -3.3589748429647823
4

O -1.2709857762451486 0.8270504389005966 1.161233967293219
H -0.4791281103451491 1.3616714559005971 1.2468457403932185
H -0.9514776708451491 0.10914422450059713 0.5852376356932185
I 3.3818550248451484 -3.764588563900597 -3.3886809847932184
4

O -1.301363915220899 0.8570289947370409 1.190940109121656
H -0.5095062493208985 1.3916500117370405 1.2765518822216555
H -0.9818558098208985 0.1391227803370405 0.6149437775216555
I 3.4122331638208987 -3.794567119737041 -3.4183871266216554
4

O -1.3317420541966496 0.8870075505734851 1.220646250950093
H -0.5398843882966492 1.4216285675734848 1.3062580240500925
H -1.0122339487966492 0.16910133617348477 0.6446499193500925
I 3.4426113027966494 -3.8245456755734852 -3.4480932684500925
