14

O 1.7483419973 -1.5387959365 -0.2022392983
H 1.7340722202 -1.5276036787 0.7625001118
H 2.3980438775 -2.1917498711 -0.4734540603
O -1.7408943761 1.5394850058 -0.1976667785
H -1.7366446273 1.5387630804 0.7666802039
H -2.3892611769 2.1873568353 -0.4852560199
O -1.5508404063 -1.7582340281 -0.1945069892
H -2.3377747251 -2.2347584842 -0.4709626675
H -1.5588774204 -1.7348292003 0.7718007392
O 1.5452565688 1.7576311659 -0.1930308227
H 2.3313682971 2.234021421 -0.4720072446
H 1.5538968412 1.7382652651 0.7732697441
F 0.0063654147 -0.010286564 1.3974284843
Ca -0.0033548142 0.0009526313 -0.6412184358
17

O 0.0418603386 -0.0199939317 -2.8234946601
H -0.5630493928 -0.4812600188 -3.4136999234
H 0.6667028905 0.4323578177 -3.3996551202
O 0.5966073962 -2.210064827 0.3198153939
H 0.4868410395 -2.0290263348 1.2649248689
H 0.5811852927 -3.1614407679 0.1955903515
O -2.2157701532 -0.6059632351 0.2737903086
H -3.1646828063 -0.5413057986 0.145885022
H -2.0342589795 -0.5033846663 1.2203489753
O 2.2072756855 0.6081240231 0.3191546208
H 3.1590007571 0.5449639753 0.2131226806
H 2.0060557758 0.520893824 1.2631168991
O -0.6088205787 2.2132004469 0.2636407206
H -0.5889966784 3.1620663102 0.1221387381
H -0.5255561642 2.0493156206 1.214532542
F -0.0255481114 0.014101476 1.7401399817
Ca 0.0039603317 -0.0041162631 -0.3826210774
20

O 2.092214272 -1.5393844941 -1.3594589256
H 1.9836019044 -1.7363569569 -2.2956399227
H 2.9304567852 -1.9387602616 -1.1066863404
O 1.368557482 -0.2590369208 2.1575288277
H 1.7061950176 -0.7338500098 2.9199127488
H 0.6845422254 0.3564828785 2.4665574479
O -1.1661303903 -1.8451463126 0.3947828357
H -2.0086056794 -1.3516364916 0.43418531
H -1.3739022347 -2.7770371406 0.303195093
O -2.8160142091 0.2994100987 0.1581108685
H -3.6995711074 0.5994338581 0.3836063845
H -2.1613789358 0.8322321279 0.6734278228
O -0.9775685833 0.1791473941 -1.8990792024
H -1.8496784099 0.2936758208 -1.4749078539
H -0.9191527685 0.8457279118 -2.5886106002
O 1.3846228036 1.9642203609 -0.4855432036
H 0.7807278794 2.3918154433 0.1409219143
H 2.1471729421 2.5347695371 -0.6018342878
F -0.6068643154 1.1825447355 1.109742975
Ca 0.5108279362 -0.2319745448 -0.067409628
20

O -0.2238073748 -1.297599344 -2.1625119548
H -0.6088714674 -0.962672498 -2.9776424733
H 0.0771218693 -2.1904717766 -2.3526986391
O 2.1917256945 0.7733895791 -1.0402614206
H 2.6025529552 1.536977312 -1.4534716307
H 2.8981286002 0.2778313795 -0.6119117081
O -2.2449443464 -0.6509001451 0.427916138
H -1.8903679841 -0.7780998989 1.3294059177
H -2.8925134298 -1.3422945742 0.2722973406
O -1.4911027899 1.4377590101 -1.3845368529
H -2.3276035301 1.2464217999 -0.9418678214
H -1.4767737909 2.3871950308 -1.5367869992
O 0.2026664199 1.9176689786 1.3669855643
H 0.6112325477 2.7290233955 1.6735594362
H 0.124858825 1.3046916856 2.1196782434
O 1.7400782672 -1.5580440869 0.6369518839
H 1.2620188664 -1.4966004464 1.4911138718
H 2.2610511113 -2.3632811948 0.6366200733
F -0.1686337811 -0.5464562571 1.9580867226
Ca 0.0617555007 0.0324722843 -0.1416610485
23

O -2.5567966007 -1.7369187471 0.1076152553
H -1.6094817553 -2.0180347086 0.0812694343
H -3.1059875543 -2.5242771504 0.1214928987
O 2.5579528949 -1.7471346619 -0.1037663846
H 1.6096114806 -2.0246732075 -0.076768726
H 3.1037498978 -2.5369859044 -0.1083448392
O 1.7543759006 0.3723207548 -1.6627659644
H 2.2980695339 -0.3843731601 -1.3675949725
H 1.7111806472 0.3075247508 -2.6202293784
O -1.8846738759 0.3702399897 -1.4630014348
H -2.4709881846 0.911752829 -1.9951732552
H -2.3793502267 -0.4294598103 -1.194040436
O -1.7441499953 0.391363282 1.6501214602
H -1.6966768288 0.3289992574 2.6076180117
H -2.2896443996 -0.3654440267 1.3584931257
O -0.0131200619 2.9330071273 0.0131264298
H -0.6370731283 3.490035932 0.4882994796
H 0.5932355272 3.5235773976 -0.4438098168
O 1.892187533 0.3736999152 1.4496839279
H 2.3845777676 -0.4290366641 1.1860813825
H 2.477952101 0.9183378147 1.9791727508
F 0.0004575928 -1.6676278204 -0.0007732283
Ca 0.0051522049 0.5018406663 -0.0085890748
23

O -0.5403866098 2.5638728933 -0.045394662
H -1.5076806935 2.4395880078 0.0203274951
H -0.3648109462 3.5061429373 0.0066946192
O -1.1170461688 -0.3986626685 1.47556277
H -0.9018875681 -0.4530165239 2.4119222836
H -1.1855201649 -1.3277694196 1.1520830844
O 2.1190538556 0.3477816761 1.6257649236
H 2.8182292478 0.7441205642 2.1505457204
H 2.3751806236 -0.5661476865 1.424153693
O -0.8903420804 -2.6413649886 0.0129294656
H -1.0383442212 -3.5871242109 0.086797297
H 0.0855016169 -2.4871086791 -0.0641046609
O -2.9689961297 1.3425910679 0.1386438524
H -2.7299694095 0.7304356356 0.8509248003
H -3.8812584423 1.6104160358 0.281649902
O 2.1920124756 0.3442046926 -1.9052629703
H 2.4181215577 0.5756229562 -2.8090439564
H 2.4149861495 -0.5885897142 -1.7715676409
O -1.2687990851 -0.2931415304 -1.5252458469
H -1.4042498365 -1.2441090306 -1.3867443042
H -2.1282076212 0.1284620751 -1.3930627244
F 1.4016517468 -1.5278032247 -0.1225377969
Ca 0.554276955 0.4565424148 -0.1865943745
23

O 0.336604287 2.9921662194 0.1408794117
H -0.1475914909 3.2926779471 -0.6364861555
H 0.5069301344 3.7772543377 0.6693796384
O -1.1803439774 0.1017783526 1.6912412426
H -2.0511676931 0.505052117 1.7630247427
H -1.3546588058 -0.858086147 1.5944885601
O 2.2569226672 -0.0929519511 1.8407865649
H 2.6009539258 -0.0634760723 2.7361638638
H 2.2004251441 -1.023604289 1.57343111
O -1.3874964438 -2.4407218276 0.6793513017
H -1.4673897166 -3.3460158141 0.9893868728
H -0.4566020494 -2.3162259085 0.3643060811
O -3.0720049306 -0.7345545424 -0.7477767542
H -2.6495050926 -1.5304746862 -0.3793684402
H -3.8617926618 -1.0155910779 -1.215713581
O 2.0836788106 0.1984715258 -1.6270526531
H 2.8378878082 0.3953769493 -2.1866888255
H 2.0458480454 -0.7621926613 -1.4945780783
O -1.0260176352 0.807466311 -1.4903529363
H -0.7938091156 0.5960760415 -2.3992829607
H -1.8575474195 0.3076294774 -1.2987206939
F 0.9235989758 -1.5266481172 0.0282988375
Ca 0.6363745321 0.6154526284 0.2233781534
23

O 2.7664869945 0.7742294843 0.1925314129
H 2.7203983041 0.379527718 1.081269552
H 3.6503708714 0.6081617324 -0.1434880995
O 0.0733388922 1.8884926627 1.3429604496
H 0.4578212864 1.2768226895 2.0024231274
H 0.4436610149 2.7578903074 1.512160364
O -1.3450299393 -1.1164488579 0.8686132707
H -2.2932800824 -0.937152627 0.8695731728
H -1.0460002497 -1.1792859409 1.784341005
O -3.8649968433 -0.1338763673 -0.1489899889
H -4.4950043402 0.4153297496 0.3288312292
H -4.3965185543 -0.7564938013 -0.6557692239
O -1.5173952947 1.0403756289 -1.2971556858
H -2.3673284517 0.6817075049 -0.9848291835
H -1.6047245109 1.9935961331 -1.1975608165
O 1.5552399043 -2.1555016129 -0.0340898491
H 1.5896049543 -2.0515709091 0.9324447058
H 1.4491115278 -3.0890002104 -0.2284267523
O 0.765003614 -0.0467988729 -2.5880441932
H 1.4205216984 -0.3537463471 -3.2198816707
H 0.0105675385 0.2760256204 -3.0913722402
F 1.1298707266 -0.4191439266 1.8872244579
Ca 0.4882141248 0.0205242248 -0.1894984304
26

O -2.9757504244 -0.9401639024 -0.178420824
H -3.8958074689 -1.2193500339 -0.1676485943
H -2.863468671 -0.3156728409 0.5620414186
O 0.6169862038 -2.2279963918 -2.4121405483
H 0.3104612167 -2.5875152555 -1.5647948658
H 0.693703376 -2.9624818509 -3.0275469553
O 0.0875980299 2.6250370901 -0.78101251
H 0.4184311876 3.4794999666 -0.4908266071
H -0.362641407 2.7527831242 -1.6219814238
O 2.2336811084 -0.5149317143 -1.0150344718
H 1.9977535329 -1.1420341706 -1.7228867414
H 3.106121206 -0.7591563906 -0.6958966881
O 1.9417329581 1.5456882672 1.5578981184
H 1.7803080423 0.880161572 2.2516121349
H 2.7796683807 1.9759698723 1.7394461112
O -0.9767455567 0.0963533324 -1.9088406126
H -1.8580703858 -0.2081991913 -1.629909233
H -0.6045134733 -0.6188281712 -2.4488217695
O -0.4229009583 -1.9854420882 0.2061118872
H -0.1689894753 -2.0506329611 1.1411129038
H -1.3949752557 -1.9530487197 0.1866940504
O -1.7072782069 0.8040346659 1.5644776977
H -2.0629131657 1.5751113089 2.0127645154
H -1.0863176826 0.3306106316 2.1779928907
F 0.3883034047 -0.4050704952 2.199221603
Ca 0.3724617309 0.4182395395 0.1285953436
26

O 0.0068296928 -2.1671675551 -2.1061372231
H -0.6745281055 -2.8260072965 -2.273451833
H 0.4559307018 -2.0250554357 -2.9456956172
O 1.840936361 -1.6990648512 0.7801924514
H 2.3999306743 -2.4666076587 0.6414382388
H 2.3655830941 -1.0149421126 1.2436693181
O -2.6262590099 0.680205586 1.4865925037
H -3.2013653761 1.0773790099 2.1449845051
H -1.7219060171 1.0327865931 1.6181304672
O 1.7149980301 0.7156115245 -1.3773126109
H 1.3416426058 1.6030273788 -1.5147561206
H 2.4519932053 0.8517652069 -0.7656389729
O -1.690348658 -1.7675326324 0.8844312409
H -2.2541036366 -1.0719793811 1.2836502819
H -1.7624768452 -2.5509181121 1.4342960128
O -0.0875178836 2.7919242603 -0.8990602066
H -0.0741490424 2.4700998124 0.0239942366
H -0.1123093638 3.7518193335 -0.8834047389
O -1.7985626004 0.5967830059 -1.3360524489
H -1.4867689673 1.5015780292 -1.5007648307
H -2.5433601478 0.7003506495 -0.7262192157
O 2.5855120173 0.7872231155 1.4821321059
H 1.6662113096 1.0971133888 1.6167039987
H 3.1367176691 1.2203924564 2.1386267683
F -0.0313216023 1.0986417674 1.1789404262
Ca 0.0200121491 -0.5892403467 -0.2629688935
26

O 1.3778175785 -1.6932069512 -1.3100451372
H 1.4146367171 -2.331886668 -0.5802314875
H 2.2367942395 -1.6621933729 -1.7396682173
O 1.4574751756 -0.2535696864 1.5969376689
H 0.8477868659 0.0030450781 2.3098802971
H 1.5938801085 -1.210889088 1.6618779988
O -0.9639979956 0.285869942 2.8832654722
H -1.3679127975 0.5528996598 3.7145580365
H -1.1140540139 1.0379916619 2.2637977555
O 1.5470767795 1.6102888707 -1.197304788
H 1.9737597908 2.071987218 -0.4710397319
H 0.8783797794 2.2087029724 -1.5744655383
O -1.3501106098 -1.456748386 0.7697019844
H -1.3921891809 -0.9712794415 1.620848644
H -2.1656288239 -1.2338108822 0.3077631689
O -0.9196438946 2.7358387893 -1.8303112061
H -1.3568954332 3.5483216562 -2.1028184873
H -1.1527629996 2.6215906873 -0.8806445168
O -1.2725151443 0.0058813663 -2.1611013663
H -1.0914528452 -0.3940235401 -3.0162154501
H -1.3048592024 0.9748142465 -2.2781729346
O 1.0651135751 -3.0273632961 1.1417825968
H 0.0978661852 -3.0413581914 1.1654911295
H 1.3590252588 -3.8838102626 1.4682284943
F -1.058796931 1.6889709989 0.627106222
Ca 0.1363552143 0.0307845526 -0.2689238742
26

O 0.9596494557 -2.4568063722 -0.5785732645
H 1.0273669505 -2.7082144143 0.3565707828
H 0.9339018226 -3.2673963344 -1.0922002298
O 2.0251131381 -0.0866693476 0.8859761533
H 1.7178050023 0.151298674 1.7782070669
H 2.8285079569 0.412441812 0.7175038206
O 0.1617734661 0.3224834345 2.8359219534
H 0.050915464 0.7836448753 3.670746915
H -0.2837985111 0.8612460344 2.133714821
O 1.3648833037 1.4161454778 -1.9133042567
H 1.8637545213 1.4278778974 -2.7336108212
H 0.8067581762 2.2175061568 -1.9005459751
O -1.7192297916 -1.4262128973 0.3489541715
H -2.4143023357 -0.9013419596 0.7579136494
H -1.4106053883 -2.0511864012 1.0254345159
O -0.8654351852 2.9162016458 -1.4404212291
H -1.1612250141 3.8296154247 -1.4406864613
H -0.9201128048 2.5785256266 -0.5159573396
O -1.4538705296 0.3722889064 -2.3528442062
H -1.5500690028 1.3411115166 -2.3297262362
H -2.28892412 0.0044235789 -2.6513986864
O 0.0922451089 -2.413752254 2.1938250626
H 0.1832688392 -3.0625627815 2.8970415332
H 0.1357817195 -1.5353574672 2.6182802123
F -0.7093143511 1.3723926631 0.6404180573
Ca 0.1201918182 -0.191491346 -0.614379892
26

O 0.4349031654 -2.4448543095 -1.574061232
H 0.9005763254 -2.901767392 -2.2779705955
H -0.2098877114 -3.0636296746 -1.2148960573
O 2.0299025183 -0.4684419146 1.0206071314
H 1.7236508255 -0.9092092744 1.8422007463
H 2.5205644594 0.3034446868 1.3201572082
O -1.2644911891 0.4417199512 2.7530391072
H -1.7783885583 1.0098877116 3.3317282007
H -0.9718975061 1.0023326933 1.9937611474
O 1.5280850793 1.1887704743 -2.0571446009
H 2.42362027 1.3908557314 -2.335314034
H 0.999389516 2.0110569642 -2.1038822112
O -1.0322992708 -1.7437725589 0.8046799592
H -0.5038262277 -2.0832228421 1.5466205693
H -1.7107498742 -1.2209800338 1.2562081754
O -0.5260537332 2.9040689169 -1.5974475197
H -0.7513678033 3.8353334346 -1.6567501162
H -0.543139523 2.6382557389 -0.6461446889
O -1.5046488154 0.3884441526 -2.0772623046
H -1.5076208643 1.3629036535 -2.1076132445
H -2.0846249702 0.0757991236 -2.7735773378
O 0.5877228869 -1.4868214923 3.0836516305
H 0.7875879672 -1.880924288 3.936265894
H -0.0425849729 -0.7463911515 3.2262874943
F -0.4173973926 1.4809738209 0.5311218368
Ca 0.281753091 -0.2312610244 -0.5997128288
26

O -2.5784591727 1.8896062672 0.4472235533
H -1.6701955763 1.9841554158 0.8275398135
H -3.1358390161 2.5958457936 0.7810661604
O -2.2592594733 -0.8432973122 0.6810591684
H -2.5516664376 -1.1945698252 1.5264989159
H -2.647257309 0.0536796039 0.6114963681
O 2.0433610034 -0.2990550048 1.6469833404
H 1.7763732211 -0.0346860323 2.5339977403
H 2.5130412147 0.4801566669 1.3083179436
O 0.9857297742 -2.5800245291 0.5958758039
H 0.8392672036 -3.5257248788 0.6658222509
H 1.7380043634 -2.3517963865 1.1562633481
O -1.2401767907 0.9162716479 -1.6822268421
H -1.5359946643 0.8359963765 -2.5906919716
H -1.8434199317 1.5245304018 -1.2163246785
O 1.9953334858 0.0065416211 -1.4110955888
H 2.330670582 0.8573524903 -1.05813189
H 2.7169539075 -0.4327753785 -1.8648172799
O 2.3209240569 2.1266136877 0.2151310957
H 1.3866736141 2.164557421 0.5264463576
H 2.6546101606 3.0210908473 0.1195005234
O -1.080235955 -2.1477745978 -1.6081146689
H -2.0019812147 -2.1779966371 -1.3284767728
H -0.9966220645 -2.7468143447 -2.3541419776
F -0.1096176169 1.462188809 0.8917110932
Ca 0.0286056792 -0.4781299646 -0.1477391316
26

O -2.1034322765 0.331051427 -1.7203206507
H -2.3304027024 0.671122337 -2.5887410382
H -2.9369894224 0.1656179487 -1.2413099034
O -1.7251854688 1.501063305 1.1620471018
H -1.5457035978 1.7273123379 2.0786499072
H -2.6708333405 1.2968530873 1.0960702961
O 2.9944448102 -1.263674371 0.7547800423
H 2.2016667773 -0.9986367091 1.2872830189
H 3.508841989 -1.8758401311 1.2863103071
O -1.5241795413 -1.6759707283 0.8645529416
H -0.7687283625 -1.5253606231 1.4765922374
H -1.4758657782 -2.6007598401 0.6068086742
O 1.2662344453 1.9601415489 -0.8602376206
H 1.3065185656 2.8813514537 -0.5913140698
H 2.1977262411 1.6555769306 -0.9881044143
O 3.6802587001 0.7975074873 -0.9770450827
H 3.6829807584 0.1311071536 -0.267834161
H 4.5724593829 1.1410844319 -1.0559814882
O 1.2348418984 -1.2757688117 -1.3351808772
H 1.9462880974 -1.5226503722 -0.7074935124
H 1.638959437 -1.279594848 -2.2067999389
O -3.8422248435 -0.1151269809 0.3564559097
H -3.3581069304 -0.8636576101 0.7445438083
H -4.7811515416 -0.2899341969 0.4665480609
F 0.6785073693 -0.5221524433 1.568234337
Ca -0.2304838518 0.2444510205 -0.2309078443
26

O -1.9115183777 0.4516686281 -1.7473334195
H -2.1652133908 0.7122073568 -2.6355375043
H -2.6932137163 0.0603630746 -1.3132528157
O -1.8666397391 1.410205894 1.2462418582
H -1.6890016288 1.4890664404 2.1886306519
H -2.7245100381 0.9707089055 1.1535510704
O 3.0928336464 0.9000411485 0.7709467539
H 2.3887455359 0.5052655774 1.3455782289
H 3.9038811798 0.9451856217 1.2826239489
O -0.8046527911 -1.6191195345 0.5200867158
H -0.1979996469 -1.3547125681 1.2464931633
H -0.3590162427 -2.3396995097 0.0513849456
O 1.2769922547 2.591879398 -0.2515197698
H 1.2465896974 3.5479793031 -0.1764857085
H 2.1198261928 2.289006893 0.1510857671
O 1.1924529084 -3.2195014477 -0.9476967851
H 1.0400642382 -3.7927249777 -1.7062170303
H 1.7804821407 -3.7186312258 -0.3708694937
O 1.7210066836 -0.3861558849 -1.3401307001
H 2.5281926664 -0.0982725953 -0.8822712068
H 1.7453177113 -1.3550138173 -1.3452656846
O -3.454077706 -0.6793976822 0.211044465
H -2.7657082141 -1.3083379394 0.4841283768
H -4.3017787389 -1.1249756451 0.2920504724
F 0.8428246547 0.0341515848 1.6506870394
Ca -0.1018375658 0.6771671449 -0.1985261878
26

O -3.5082015233 -0.8498204804 0.0678825416
H -3.2029239651 -0.4823520849 0.9091962804
H -4.4422465895 -1.0546232652 0.166475124
O 2.6309204888 -1.655017693 0.0068739196
H 3.1267761692 -2.4760262577 0.0553643505
H 2.0218783451 -1.6407028681 0.7743364971
O 0.4333728833 2.6135388576 -0.5785314758
H 0.4847693841 3.1456316388 -1.3780011352
H 1.2182333085 2.8289342561 -0.0599173492
O 1.5513045705 -0.1703643903 -2.0494948386
H 2.1197010707 -0.8666507495 -1.6727999215
H 1.3721122437 -0.411683331 -2.9634807348
O 2.2148363992 1.1173771192 0.9501101422
H 2.0643057021 0.5329953964 1.7090391136
H 3.0527781966 0.8233447795 0.5765190691
O -1.8717259385 0.7898360902 -1.4347712918
H -2.656282916 0.2832579839 -1.1546070683
H -2.1878890645 1.6554929855 -1.703750601
O -0.9519642813 -1.9583844047 -0.4572036712
H -0.6345196702 -2.5071397864 0.2697689696
H -1.9180260849 -2.0142938661 -0.438188164
O -1.4790555968 0.5139058272 1.7654082882
H -1.6235483046 1.2534924305 2.3627012793
H -0.8360974378 -0.0829451039 2.202739968
F 0.655539134 -0.9717879618 1.6424655276
Ca 0.1065511825 0.1916268296 -0.1759538656
26

O -3.045145201 0.5452697782 1.1550939786
H -3.9177299739 0.7567135447 1.496211399
H -3.1217153303 -0.2846450056 0.646393581
O 2.2394579619 -1.2198923325 2.2884798335
H 2.609737879 -1.6484354965 3.0651328775
H 1.2784826553 -1.3529728064 2.311650024
O 1.9436884479 1.3255759307 1.2882524722
H 2.3464462599 2.1442706615 1.5863052248
H 2.2901154529 0.604955415 1.8456771082
O -1.2267460561 2.0659276678 -0.1536486437
H -1.5565805437 2.6718906964 -0.8222440613
H -2.0090369975 1.6829695466 0.2995372658
O 0.7149076632 1.165391159 -2.750312645
H 0.1360208741 0.4332576721 -3.0227391277
H 1.1775240493 1.4950401494 -3.5231750114
O 2.2063701913 -1.2177290726 -0.5271041678
H 2.1459037503 -1.9734611078 -1.1184143566
H 2.5622164229 -1.5340549952 0.3159570291
O -0.4311185225 -0.7741245108 1.4304570058
H -1.031596979 -0.2454127363 1.97337769
H -1.0435904612 -1.3978168544 0.9779412113
O -2.3772627103 -1.7867644626 -0.1607403759
H -1.8062828609 -1.5156814608 -0.9347671566
H -2.8031286003 -2.6181909045 -0.3812476508
F -0.6549930859 -0.8052683091 -1.7073540614
Ca 0.5345047874 0.495456211 -0.4761262406
29

O -0.6926512534 -1.0727274642 1.7571983361
H -1.2108605921 -0.361367475 2.1757825306
H -1.3526039402 -1.64099382 1.3437547187
O -0.0742240754 0.054036745 -2.7658382077
H -0.8486376543 0.426582234 -3.2002125633
H -0.2112773921 -0.9037026124 -2.8413592682
O -2.3377887622 1.149623924 1.6922657984
H -3.1340269701 1.3750639915 2.1780924268
H -2.5910670371 0.6931355617 0.8611294361
O 1.4745754264 -1.609318313 -0.5118355029
H 1.8769229624 -1.8995267799 0.3212418379
H 0.9270807018 -2.3319903018 -0.8493169847
O -1.0379639727 -2.3481794942 -1.5722647669
H -1.6762362947 -1.6509108769 -1.2893933084
H -1.5568002366 -3.0726657285 -1.9314778453
O 2.1696477972 1.395007341 -1.1530275186
H 2.2035673164 2.2304627587 -1.6285073113
H 2.7071076587 0.7832416012 -1.6687000965
O 1.2879154637 1.0063088088 1.6933917241
H 1.9573401608 1.695909969 1.6465267735
H 1.7184626163 0.2467797394 2.1214383621
O 1.9600421789 -1.6762667268 2.3179382102
H 1.0179108938 -1.8207527775 2.4936281893
H 2.4527222955 -2.1685338938 2.9806046072
O -0.6905008854 2.6350110055 -0.2382145807
H -1.0711901176 2.7315158959 0.6478504816
H -1.4129689154 2.8911965263 -0.8216944832
F -2.0651090613 -0.1994802096 -0.5414156702
Ca 0.0698869069 0.3163461134 -0.3023827823
29

O -0.3678149432 -1.2354617142 1.49220775
H -1.0608927673 -0.7899296788 2.0046335873
H -0.8347211669 -1.9271502182 0.9901344337
O 0.1901790443 0.4007322606 -2.8329311468
H -0.7447698753 0.2515686533 -3.0151785923
H 0.6829595162 -0.2077512055 -3.3910437955
O -2.3886543158 0.6996161891 1.7360595229
H -3.255261846 0.9224884395 2.0830309047
H -2.474619687 0.5132177969 0.7749865567
O 1.1198629027 -1.8036296133 -1.0227639831
H 1.7672360629 -2.2312018848 -0.4501792319
H 0.3622474866 -2.4026729297 -1.1149795978
O -1.5835851821 -2.4825647352 -0.6730277469
H -1.9449899405 -1.582972479 -0.8386759899
H -2.2725548151 -3.1172507556 -0.884673186
O 2.6297845452 0.7661358087 0.0055234834
H 2.8338578511 0.0717986862 0.6631476535
H 3.4356368241 0.9357093742 -0.4874619227
O 0.2054511892 1.5379360855 1.7882158976
H -0.740769966 1.6034188922 2.0071970454
H 0.6068076174 2.38717882 1.9876092306
O 2.4060578223 -1.4225419913 1.6428016501
H 1.4817032396 -1.4336361122 1.9449380476
H 2.9478341485 -1.6858923386 2.3916228819
O -0.4230065452 2.7244602137 -0.9506097111
H -0.0474125284 3.3963812432 -1.5263204396
H -1.3660554705 2.7022983346 -1.1473104119
F -1.8541986803 0.1333738718 -0.7748651118
Ca 0.2925499232 0.4128645791 -0.364502739
29

O 1.0641106709 -0.2773322099 2.0123529203
H 0.4249536423 0.1138054407 2.6232305404
H 0.9460424697 -1.2360006307 2.1103264347
O 0.6208492888 0.4490671961 -2.6401119726
H 0.4965230453 1.1839234614 -3.2461064432
H -0.058105783 -0.2160197968 -2.8632728986
O -1.6318390604 0.7717473818 2.4211343591
H -2.3556264796 0.7656614538 3.0524390182
H -1.8357620418 0.1008655851 1.7385373385
O 1.3048085518 -1.7591768937 -0.7125988872
H 1.0238016075 -2.3897985622 -0.0258677112
H 0.9947339647 -2.1447298605 -1.5399879
O -1.1809036926 -1.5938860947 -2.2953439956
H -1.5175967421 -1.4752607965 -1.3854286024
H -1.8909997807 -1.9742707346 -2.8178686313
O 2.6850723553 1.1344414078 -0.2232246033
H 3.2591166516 1.1589608573 -0.9940607037
H 3.2055107668 0.7804961919 0.5047498625
O 0.1214776994 2.4691069217 1.0976898196
H 0.7589343259 3.081290186 1.4724691947
H -0.5559127826 2.284030575 1.7678462336
O -0.0952722768 -2.7619083689 1.4408152507
H -0.4390559327 -3.5900803379 1.782937107
H -0.838345542 -2.231137842 1.0893422917
O -1.6979534284 1.6116020658 -1.0195561592
H -1.9515365286 2.5224917586 -0.846175152
H -2.4459262683 1.0642886585 -0.7555433033
F -1.4697852995 -0.8126081043 0.2611859951
Ca 0.3551806995 0.4356834017 -0.2275723364
29

O -1.7198032208 1.5988031342 -1.1947682885
H -2.4211854743 0.9489645953 -0.9890113712
H -1.7934742041 1.7892120294 -2.1338253348
O 2.4673769152 0.2869918542 -1.3694710432
H 3.3340738088 0.6595052758 -1.192984243
H 2.5353479419 -0.6857161979 -1.2953097536
O -3.0407885848 -0.4685776877 -0.0546013059
H -3.8469191512 -0.9751064269 -0.1767821883
H -2.2902618565 -1.0956217321 -0.0234026399
O -0.0054218615 -0.377128215 -2.6244551258
H -0.2298471978 -1.3146038338 -2.6169845292
H 0.7685250613 -0.3233209827 -3.1959206413
O -0.3905130934 -1.4633779885 2.6864939954
H -0.6174901989 -2.1618889138 3.3041103768
H -0.5698085644 -1.770649027 1.7745683802
O 1.6249101309 0.0036199681 1.6570889894
H 1.178830352 -0.600046259 2.2795535635
H 2.2122286864 0.5646240753 2.1685566879
O 0.8215023073 2.7625561418 0.4916285611
H 1.0290246387 3.6490106472 0.1840661387
H 0.1314544262 2.8554263274 1.1615976207
O 1.6857116472 -2.3189950382 -1.0763192161
H 2.1745767572 -3.1073369751 -0.8292913768
H 0.8559473649 -2.3090079025 -0.5614821154
O -1.186955899 1.0691678514 1.6318494107
H -2.126453317 0.9937803876 1.4208291663
H -1.0289279319 0.3842526741 2.3016141122
F -0.5931585175 -1.510224742 0.0521511772
Ca 0.2756664164 0.5248546395 -0.3105533389
29

O -0.4888541802 -1.7875279409 2.0075700044
H 0.0347932395 -1.2516507903 2.6411593819
H -1.2255221869 -2.1673841421 2.4921477318
O -1.4128461582 1.5101994663 -1.2316841299
H -1.2457613598 2.3624494657 -0.7788296312
H -2.2520024734 1.5864493741 -1.6921699011
O -0.4669365636 3.270005761 0.5501672823
H -0.1993266898 4.1850341974 0.6636186794
H 0.3309845408 2.7048761756 0.6602664854
O 1.3412255921 -2.0192786116 -0.1549639127
H 1.5148351195 -2.4205805911 -1.0187202389
H 1.4155417996 -2.7088310135 0.5100664634
O 1.0432722866 -2.1769820196 -2.9062623384
H 1.3745311171 -1.2634934708 -2.8781812018
H 1.3736638754 -2.5928661518 -3.7068378342
O -1.3655676118 -1.6389755091 -1.6727822917
H -0.6760274608 -1.9599090887 -2.2890205541
H -2.1183658829 -2.2251000407 -1.782212491
O 1.172124918 0.3634067893 -1.9001325584
H 0.6678154923 1.0845550459 -2.2947730903
H 1.7340949854 0.7857574125 -1.2294149134
O 0.8975982732 0.2225336034 3.0997931168
H 1.2028543383 0.7048589566 2.3004269905
H 1.5604700967 0.3436955689 3.7834697743
O -1.6458814329 0.9706645469 1.7411958851
H -1.5481483227 1.9145342659 1.5378751614
H -1.260171196 0.8726766343 2.6206688468
F 1.1320914205 1.202252275 0.6725767494
Ca -0.3639631887 -0.3058935003 0.0601534903
29

O -1.0237866957 -1.2605000229 1.5519908432
H -1.7928090629 -0.7762869595 1.8778846909
H -1.379703283 -2.0084634217 1.0454535593
O 0.0547999857 0.6858050079 -2.5417435014
H -0.870630442 0.3775028537 -2.495205744
H 0.4314237389 0.2921589135 -3.3327839595
O -2.6912936005 1.1650033154 0.9746111291
H -3.5768855798 1.4516785557 1.2111291086
H -2.745896192 0.6846196806 0.1210932212
O 1.0567212107 -1.9029890601 -0.6872655622
H 1.6778492272 -2.280620769 -0.0547913976
H 0.3427486303 -2.5463560456 -0.8373507858
O -1.5877315987 -2.7940625218 -0.7694216214
H -1.9188766733 -1.9191204113 -1.0691710298
H -2.1653915391 -3.4677644648 -1.1355784109
O 2.3854202158 1.1991134953 -0.3298442719
H 2.356020775 1.9774574697 0.239829762
H 2.7271557351 1.4940017929 -1.1798191826
O 1.0125196572 0.9571778383 2.0456620548
H 1.6476157607 0.2582676371 2.279339724
H 0.5724911784 1.2170054143 2.8593361251
O 2.8654585858 -1.0424945131 1.5218982709
H 3.5051584483 -1.5089700044 2.0690247979
H 3.3810895184 -0.4810580283 0.9302490707
O -0.5555226276 2.5506064871 -0.1744931209
H -1.4284940547 2.5178678232 0.2518289694
H -0.6866946098 2.9650583436 -1.0325957964
F -1.8934401141 -0.20646339 -1.1035610537
Ca 0.0704283031 0.2022557367 -0.0908740499
29

O 1.2896907708 -0.7211772394 2.1497354833
H 1.1183477962 0.0546932831 2.7137623263
H 0.9296390987 -1.4752858262 2.6254878919
O 1.7244282867 2.0185613304 0.465253621
H 1.8837191132 2.8342331372 -0.0159492459
H 1.3710652265 2.2594679776 1.3476978156
O -2.9838218667 -1.0497919013 0.4170476721
H -2.4566456285 -0.3211297081 0.8311284443
H -3.7033840118 -1.270758289 1.0128986789
O -0.5819821636 -2.1339672115 -0.3067294824
H -0.6066599693 -2.6272532765 -1.1316527789
H -1.5071826635 -2.0582645302 0.0007368189
O -2.7194889463 -0.7040902784 -2.3416566391
H -3.4552947136 -0.6854676333 -2.9587783177
H -3.0931105111 -0.8582399776 -1.4558766586
O 1.27688193 -0.5219263716 -2.3871998532
H 0.9117466295 -0.2308058839 -3.2271702707
H 2.1897533401 -0.7847366637 -2.5409843049
O 3.0024482206 -0.6117697862 -0.2170919127
H 3.2794585564 -1.2408392065 0.4579754053
H 3.4455074052 0.2075272396 0.0337632493
O 0.3862317409 1.815372309 2.7941791243
H 0.1128220271 2.3592147454 3.5363913985
H -0.421982082 1.4936492562 2.3206533146
O -0.9549268573 1.2070273014 -1.6194343511
H -1.4872693269 1.7369087437 -1.014984124
H -1.6063827301 0.6079011378 -2.048128768
F -1.1957187389 0.6678017356 1.1478996945
Ca 0.5085928704 -0.0212811186 -0.121564129
29

O -1.0029617608 -1.9635169747 -0.2677099738
H -1.3668303666 -2.1232728586 0.6206409489
H -0.5646487031 -2.7585196297 -0.5947065073
O -0.4401663933 2.5228961963 -1.220058151
H -0.6690546398 2.9498187613 -0.3719459678
H -1.0002379266 2.9104802762 -1.8971791111
O -1.0068606674 2.7644317796 1.4439979903
H -1.0601968615 3.4185915006 2.144744367
H -0.5286777948 1.9800757153 1.7995139984
O 1.9277324025 -1.2887351758 0.3660041295
H 1.6540451057 -1.1452987373 1.2831238899
H 2.6739579153 -0.6917144573 0.2351666617
O 1.2073260876 -3.2100807291 -1.5262294476
H 1.5951379556 -4.0282867942 -1.8489224513
H 1.7408914403 -2.9122499203 -0.7736929432
O 0.7585597936 -0.6836434533 -2.5173861807
H 1.0081586962 -1.622908077 -2.4029450575
H 0.5731617407 -0.5583403577 -3.451018594
O 2.1177969268 1.4931759715 -0.161888057
H 2.3889678892 2.1713521222 -0.7885738324
H 2.1089926011 1.9151913012 0.7045436951
O -1.8048581752 -1.2493026441 2.2095984934
H -1.0591395255 -0.6218503584 2.3130997292
H -2.0651120823 -1.5480512438 3.08372637
O -2.39228897 0.6326596321 0.0900672705
H -2.4399463226 1.4687277901 0.5736547785
H -2.7138876931 -0.0373589591 0.7102405689
F 0.1847784529 0.4502450984 1.7346806319
Ca -0.0522664261 0.2188819551 -0.4552296301
29

O 0.7423709733 -0.0785213623 2.5044508271
H -0.1719510617 -0.4420712638 2.4039115445
H 1.2043299163 -0.6359978203 3.1361037428
O 2.3741450287 1.1176979056 0.0173212685
H 2.5628557027 1.635075673 -0.7715584244
H 2.2439087728 1.7666682198 0.7353016221
O -3.080276463 0.4475821242 0.1376199203
H -2.5424260677 -0.1740396843 0.6946436418
H -3.9596668042 0.4934477659 0.5205051826
O -0.6396826253 -2.255825345 -1.1770756384
H -1.2991395119 -1.866574142 -1.7766755817
H -1.1591335819 -2.7031027203 -0.4988954333
O -2.2789841189 -0.2843321383 -2.3880690687
H -2.9228903281 -0.263007178 -3.100989564
H -2.7428875176 0.0140810161 -1.5766041624
O 0.4737828467 0.2477503363 -2.399334001
H 0.8900219694 -0.2079193452 -3.1358433949
H -0.4612796439 0.3591306667 -2.6471976481
O 2.3512331038 -1.8516135051 -0.067341852
H 2.455666828 -2.7648050187 -0.3484268729
H 3.2336980983 -1.4733113124 -0.0002947764
O 1.2271464467 2.6134260084 2.0281630722
H 1.0216689198 1.8244146809 2.5572733625
H 1.4738242729 3.3216243052 2.6284582978
O -0.661950265 1.7683518426 0.0511771093
H -0.3051998048 2.4231028644 0.6667642791
H -1.620940494 1.7083547088 0.1929009978
F -1.2613140838 -0.9578992748 1.2645251448
Ca 0.4403753271 -0.3713418041 -0.0458757784
29

O 2.1633840915 2.1402409754 0.0084755263
H 2.3782049443 2.969168109 0.4438236206
H 2.9799175749 1.7935851693 -0.3651576536
O 2.2949207935 -0.8813744317 -0.5990315269
H 2.5744252389 -1.4337124043 0.1382341372
H 2.0389388378 -1.4888707217 -1.3102818717
O -3.2628401912 0.0437472823 -0.2620622875
H -4.0392606608 -0.2618474909 -0.7374261577
H -2.5894039351 -0.6612744073 -0.3299692099
O 0.5844658692 0.614432815 -2.4411771811
H 0.5010230024 -0.3001459139 -2.7693038313
H 1.0863895351 1.1047584139 -3.0958695864
O -1.1473029645 -1.4743420374 2.5231952145
H -1.5833648974 -2.1763517093 3.0121717299
H -1.2444684896 -1.6651874707 1.5675373959
O 1.3843246998 -0.6027163647 2.0223785259
H 0.6324310843 -1.0397029723 2.468119139
H 1.8762736335 -0.1533412358 2.7153973326
O -0.9302428386 1.2634740678 1.9574416028
H -1.6429194491 1.8775305766 1.755690106
H -1.3304092692 0.5135801533 2.4232131895
O 0.3641267994 -2.0948958908 -2.2806869065
H -0.2501019493 -2.0410425153 -1.5189296009
H 0.1360186189 -2.8698497584 -2.7989518839
O -1.4598243189 1.9512374725 -0.6893203599
H -1.485816005 2.3120161851 -1.5788929478
H -2.2807743861 1.4111675438 -0.6046114175
F -0.9458674941 -1.2632518586 -0.1149437028
Ca 0.382175083 0.5223100192 0.0426063797
