14

O -0.0829180332 -1.8028771337 0.9495213359
H 0.3175895625 -2.4553659674 1.528550958
H -1.0475082704 -1.85217108 1.0357606493
O -0.2149241859 0.0154172913 -2.020111432
H 0.1792673362 0.0200068127 -2.895041364
H -1.1791695444 0.0154904982 -2.1018565792
O -0.0828501675 1.7897030113 0.9741295018
H -1.0472932802 1.8386574371 1.0617948725
H 0.3186603214 2.4310781902 1.5647887076
O 2.1377221228 0.0007103131 -0.0619039147
H 2.7059929636 0.7741886653 -0.1356349266
H 2.7068554804 -0.7719852923 -0.1370556096
F -1.7653599473 -0.0012969684 0.0905924108
Mg 0.0684907697 -7.7795e-6 -0.0016630942
17

O 5.6944e-6 -0.0004279 -2.1476456656
H -0.7034095366 0.3229875562 -2.7185210308
H 0.703804232 -0.3247557438 -2.7175153361
O -2.1148194189 0.109738151 -0.0519380008
H -2.2843315669 0.2450921271 0.8905503542
H -2.698281265 -0.6054454689 -0.3245443074
O 2.1154124579 -0.1099578863 -0.0505559073
H 2.7017011552 0.6027441443 -0.323555553
H 2.2817341068 -0.2426665917 0.8928925072
O -0.1257862528 -2.095551092 0.1997978379
H -0.0844431612 -2.1112130677 1.1671687223
H 0.256639258 -2.9113619083 -0.1323078274
O 0.1244114981 2.0960546206 0.1986207098
H -0.2563246693 2.9120169954 -0.1349078368
H 0.0843211265 2.1125486789 1.1658855711
F -0.0020342131 -0.0008175292 1.79298319
Mg 7.9939e-6 6.55368e-5 -0.0646629639
20

O 1.6827916656 0.0142927061 1.6897318233
H 2.6002449682 0.2923090918 1.7612612553
H 1.4790399166 -0.5123720669 2.4691855766
O -2.8173049159 -0.0343746253 -0.2026830874
H -2.2142646367 -0.0319114001 -0.9836571026
H -3.7258444316 -0.0491565778 -0.5125565088
O -0.7870252668 -1.4087393889 1.03877236
H -1.7111193304 -1.1991403937 0.7972925204
H -0.6532311878 -2.338378349 0.8301560958
O -0.8786014574 1.4660036383 0.939933684
H -1.7919246398 1.2644976328 0.6551587581
H -0.9191732584 1.7905344777 1.8425734888
O 1.3789552862 -1.5449563369 -0.9564175934
H 0.8878485489 -1.5190210903 -1.7901343198
H 2.2897531532 -1.7745431153 -1.1575783919
O 1.5295954871 1.5176979882 -0.9338564494
H 1.018948135 1.5586685192 -1.7555376079
H 1.6880953742 2.4274940652 -0.665832087
F -0.6358719255 0.0245388027 -1.5453149483
Mg 0.3815752634 0.0439047541 0.0488061345
23

O -0.8706669333 -0.0228929688 1.5677433886
H -1.438846525 0.7542084455 1.4370557723
H -1.4657520679 -0.7801367534 1.4438542334
O 0.5664022827 -2.1133537099 0.0748112119
H -0.3542353324 -2.4317564645 -0.0282677389
H 1.1284791052 -2.6716764526 -0.4686068147
O 2.0417187575 0.0016619036 1.5181708552
H 1.6318208176 -0.1194805925 2.3828434696
H 2.8555017997 -0.5111569707 1.5328322907
O 1.8741731484 -0.0785581277 -1.6491391138
H 2.5896382016 0.5304180548 -1.8551372573
H 1.2518086725 -0.0294036012 -2.387885679
O -2.0166787036 2.0482800341 -0.0667763635
H -2.7790781119 2.5743667239 -0.3199280817
H -1.8601449039 1.3735082377 -0.7600022489
O 0.645033198 2.0798032623 0.1206510157
H 1.1489746397 2.6177419874 0.7358268209
H -0.2499153462 2.465218711 0.0331815368
O -2.0855382671 -1.9572545194 -0.1275266491
H -1.9136632999 -1.2612689411 -0.7952923525
H -2.8701601184 -2.4464572751 -0.3864380417
F -0.8511663472 0.0501603245 -1.3021001551
Mg 0.5550811203 -0.0080450431 -0.0052428677
23

O 2.1864552202 0.0267778093 -1.2302226745
H 2.3214281087 0.3680175548 -2.1190028286
H 3.0279113659 -0.3093359909 -0.908567968
O 1.4141225733 -0.7134906324 1.4848163434
H 1.6169478738 -0.084720374 2.1845985439
H 0.8455134575 -1.3978756611 1.8881846603
O 0.0356522465 -2.0005484343 -0.7585965103
H -0.3953171175 -2.4637786849 -0.013886828
H 0.6537100975 -2.6147753767 -1.1621446443
O -1.9980538743 2.2745614869 -0.2130671831
H -2.7898741501 2.8019999741 -0.0836964446
H -2.0894450751 1.4369895089 0.2936350092
O -0.8273454081 -2.3022234543 1.7955164138
H -1.3143895722 -1.4671745978 1.6145421096
H -1.3480789762 -2.8397193482 2.3970667662
O -0.5374986285 0.7172650336 -1.9703782041
H -1.0227830806 0.0814852536 -2.5057040462
H -1.1875685463 1.3899806621 -1.6887608955
O 0.6362157526 2.0078762578 0.3852796727
H -0.2315224533 2.4564025299 0.3654416772
H 1.2937858271 2.6351427048 0.0750917713
F -1.3202298079 -0.0121205812 0.7432038681
Mg 0.3453245516 0.002599183 -0.1888304904
23

O -0.6326259119 -0.6719065228 1.9306509227
H -0.2606226912 -0.9659900194 2.7654029749
H -1.3329016953 -1.3071662719 1.6771283364
O 0.6904623124 -2.0257145748 -0.3138803547
H 0.9803935814 -2.2162976659 -1.2113481309
H -0.1615766476 -2.4876720328 -0.1946733874
O 2.2143507339 -0.0487462134 1.1288616797
H 2.7192624251 -0.8570211576 1.2590647513
H 2.7156367591 0.6745961434 1.5155235417
O 1.2461901599 0.6610297937 -1.5991576736
H 0.6286421022 1.2884289519 -2.0226613746
H 2.133035906 1.0152369916 -1.7010481839
O -0.9232110607 2.3259890573 -1.7524453334
H -1.4420775889 1.5243818856 -1.5226235159
H -1.4452623899 2.8686419001 -2.3484117872
O 0.1919191775 2.0331959164 0.7411979584
H -0.323350746 2.2708607396 1.5181914224
H -0.2204863407 2.5011732 -0.0114738324
O -1.991448163 -2.2881602725 0.256667533
H -2.7904009181 -2.8077300814 0.139523793
H -2.0659904902 -1.4709522846 -0.2863476501
F -1.3585484414 0.0064705227 -0.7223763691
Mg 0.3213287231 0.0028571848 0.1820001022
23

O -2.012247806 -0.3348610727 1.574664269
H -1.4711839445 -0.8533813147 2.1861016805
H -2.3144113333 0.4321829032 2.0708932456
O 0.0433869491 1.648812433 0.642060017
H 0.1437345097 2.4508540672 0.1221105804
H 0.8904215723 1.5158181376 1.1216671398
O 2.6868277288 1.3183827082 -1.0838665601
H 3.5187950778 1.4656240299 -1.5398168153
H 2.8917070727 1.0536477137 -0.1690387138
O 2.3536199094 0.5806919623 1.5515704554
H 1.8126069295 -0.2491861897 1.5103634309
H 2.8679434743 0.5684070957 2.3619407487
O 0.4975639928 0.0097412999 -1.7775479385
H 0.6782200127 -0.7883268312 -2.2822030539
H 1.3636852988 0.4748503121 -1.6482895904
O -2.180161614 0.6330555112 -1.2111742523
H -1.9952973339 0.8862862453 -2.1208245408
H -3.1213628482 0.7469972745 -1.056138184
O -1.0821372384 -2.1884376407 -0.6904136155
H -1.8811481611 -2.6944936488 -0.8577416607
H -0.5205513811 -2.7039952799 -0.0959940111
F 0.5361625343 -1.1464914873 1.0976742305
Mg -0.6427513808 -0.2044550198 -0.0514589576
23

O 1.4810746781 -1.9037239099 -0.8254730553
H 0.8259439241 -2.5259116199 -1.1622374829
H 2.0711451051 -2.4157019063 -0.261601145
O 2.0542711975 -0.4113404969 1.6371459935
H 1.4606552692 -0.8834432586 2.2440824923
H 2.5758779024 0.2092513761 2.1520850639
O -2.5504036968 -0.1403137487 1.1855634355
H -1.8534505153 -0.7608139298 1.5120534793
H -3.3520373888 -0.3014733432 1.6884090823
O -0.3819379277 1.5392753882 0.7309271858
H -0.7134315429 2.064540679 -0.0129851791
H -1.1895594794 1.2375041753 1.1890202704
O -1.0546761188 -0.5212726573 -1.217119385
H -1.8246304333 -0.6558952832 -0.636772954
H -1.2749184082 0.2567214266 -1.7492766417
O 1.701583718 0.8757827774 -1.2006950105
H 2.0355245621 1.7717106113 -1.1049565799
H 2.3211743828 0.3922847834 -1.7571342357
O -1.6045403283 2.2918220252 -1.8274113906
H -2.5367927371 2.5196899394 -1.7390680491
H -1.2920200257 2.8366932346 -2.5572749704
F -0.333136082 -1.330152238 1.4357395577
Mg 0.533936914 -0.2604840423 0.141262179
23

O -0.8897562463 -0.354457566 -1.554540212
H -0.7970664238 -1.2136168103 -1.9764777821
H -0.3643032944 0.2887245484 -2.0786313951
O -2.5391559255 -0.0347383112 0.81442648
H -3.110828072 0.0195612227 0.0418498552
H -3.087439745 -0.2766247021 1.5656557989
O -0.6028809586 -2.3788179362 0.5108649285
H 0.344679869 -2.5640153359 0.5789231336
H -1.0745242489 -3.0581671826 0.9988026249
O 0.7907682073 1.6238472796 -2.312678482
H 1.6937216215 1.280787218 -2.0670500911
H 0.887081097 2.2119859281 -3.0656452815
O -0.0976954962 -0.1087832306 2.5724550337
H 0.8581403397 -0.2557780553 2.5062529079
H -0.2359025544 0.5701795418 3.2378902031
O -0.2604547302 1.8102906893 0.1625564746
H -0.7898701171 2.5562187329 0.4511798127
H 0.1487280765 2.0430435318 -0.6978689933
O 2.8954894069 0.5799540752 -1.207551161
H 2.4809955093 0.0036624794 -0.5278238552
H 3.7195277988 0.1764549038 -1.4849460154
F 1.370498711 -0.7032642599 0.4791977098
Mg -0.4647948716 -0.2380020803 0.493144978
23

O 0.3508886752 0.3295484451 -1.7141971286
H 1.0557279647 0.4868821324 -2.3461477036
H -0.3226758835 -0.2383807091 -2.1340117543
O 1.2656867391 -1.2761735622 0.7219352254
H 0.8007117624 -2.0943752688 0.4949011075
H 1.3984470091 -1.26324537 1.6779323478
O -1.5219138935 -0.3157862687 0.3918431735
H -1.5046531803 -1.2796549561 0.5203954284
H -2.0728400526 0.0645588006 1.0838091161
O -1.682327629 -1.3930762484 -2.4804213034
H -1.9230910249 -1.6231500922 -3.3840133744
H -2.4563529563 -0.965067191 -2.0966320092
O -0.8951652333 -2.9544686127 -0.1323577172
H -1.1255849174 -3.8619008626 0.0881036089
H -1.0928308804 -2.8365521618 -1.072408796
O -0.6175972971 2.4663268252 0.3915431794
H -0.3911723524 2.6622357947 1.3140020185
H -0.573160098 3.2842252002 -0.109506271
O 2.2997519303 1.5667598954 0.2899534848
H 3.1893750469 1.2830171453 0.0656477651
H 2.2533754964 1.6550888058 1.2586507053
F 0.6039401932 1.0161339313 2.1515875377
Mg 0.401263495 0.6079113114 0.3312478472
26

O -0.3865155068 2.5789450885 -1.478740106
H -0.6654939528 3.4370988484 -1.8083938546
H -0.1532585704 2.7012086471 -0.547333373
O 0.3684153816 0.7942239058 2.8674279876
H -0.4050594578 0.746215335 2.2404479825
H 0.0381068216 0.9585252707 3.7537772929
O 1.4767317683 2.3786220775 0.914937831
H 2.1753913068 3.009700028 1.1070187397
H 1.1864070085 2.0015262263 1.7686352023
O -1.9029130387 -1.9899727395 0.0977998373
H -2.3335992019 -1.3683586822 0.703053105
H -1.9588034895 -2.8608874896 0.5005942183
O 1.4358772983 0.38477579 -0.9063204451
H 1.2655191097 0.9088761943 -1.6983455579
H 1.6517120024 1.0595401539 -0.2223335682
O 0.6805758476 -2.3342977479 -1.409613454
H 1.5136148641 -2.1067978161 -1.8358927057
H 0.2136215504 -2.9256274609 -2.0072160421
O 0.9003017922 -1.4240367837 1.3858459494
H 0.8735347852 -0.7876683917 2.130337044
H 1.7006962613 -1.9476571157 1.4598287752
O -1.1807788432 0.0300048381 -1.9634125565
H -1.1384264112 1.0049332532 -1.8586184041
H -2.0928658246 -0.1955387091 -2.1639955396
F -1.107604536 0.4233426512 0.8805949331
Mg -0.2000395391 -0.7755365363 -0.2805160918
26

O 1.5072004598 -1.6968514519 0.6504703191
H 2.1427092467 -1.106534874 1.1042596846
H 1.2634035371 -2.3896416628 1.2708069841
O -1.4558979796 -1.6486416452 0.7409432533
H -1.9282867546 -2.3984772437 0.3704192543
H -2.1050048914 -1.0591161046 1.1751438514
O -1.5078404919 0.4912203425 -1.3082475525
H -2.2692470207 0.5900539977 -0.7159050494
H -1.2176160922 1.404549213 -1.4797234434
O 0.0215144858 2.7462330943 -0.8677061216
H 0.0156798803 2.4145722545 0.0487117174
H 0.0184636505 3.706400436 -0.8454401455
O -2.6224972066 0.665193291 1.3738603132
H -3.2191567125 1.0616074097 2.0136093748
H -1.7169252235 0.9818107463 1.5609220136
O -0.0528305213 -1.9632263097 -1.8038771216
H 0.7685034345 -2.3693186548 -2.09956438
H -0.5472910554 -1.7291510243 -2.5964417232
O 2.6401194472 0.6028811243 1.4078765733
H 1.7440273835 0.935485153 1.6065001553
H 3.2525797343 0.9762620397 2.0464821266
O 1.5766843879 0.4863863024 -1.2524317297
H 1.2979727595 1.3982560502 -1.4427668367
H 2.3340550468 0.585108909 -0.6554279423
F 0.0016896757 0.8837510588 1.1032075544
Mg 0.0178696333 -0.5303143967 -0.24177781
26

O 1.3409810256 0.327918925 2.5800352789
H 1.6880275941 0.3332453616 3.4760278005
H 0.9852901325 1.2230664763 2.4031708381
O -0.0393496699 2.4957089069 1.5493422014
H 0.1593319373 3.4320580451 1.6297537044
H 0.3011886002 2.1861385646 0.66016921
O -2.4385974739 1.2832078024 0.9602028182
H -3.2719686116 1.5980351099 1.3199164242
H -1.7376005762 1.9096019666 1.2399181265
O -0.715615023 -0.866272413 1.1695116981
H -0.092576766 -0.6349835658 1.8839917073
H -1.5016821143 -0.3103746659 1.3171102759
O 0.9822364058 -0.2255540114 -2.6338972357
H 1.2977076692 0.6753762954 -2.4650855919
H 1.6658070674 -0.6777127896 -3.1354330293
O -0.1766689181 -2.5788801543 -1.0500452563
H -0.4986630417 -2.9546290516 -1.8748377422
H -0.7239031321 -2.9476290983 -0.3471017037
O 2.0119031304 -1.0565954949 0.2137724591
H 2.3519934176 -1.9371181247 0.3904459254
H 2.1415808365 -0.5250317417 1.019278791
O -1.7540899034 -0.0289282472 -1.3736553788
H -1.855537999 0.375025209 -2.2400190005
H -2.1709289025 0.5745711652 -0.7276323543
F 0.6697171466 1.3012935971 -0.5290270626
Mg 0.1879887825 -0.5227178142 -0.6970755467
26

O 2.8606562075 -1.7472178273 0.9593150563
H 3.6774432367 -2.2029592424 1.1841726944
H 2.3559791658 -1.6516650115 1.7766090417
O 0.7911820094 2.034045951 2.0434801865
H 0.0113897591 2.1599193603 1.4560572867
H 0.8347779536 2.7686811648 2.659996806
O -2.8497281904 1.1867866968 -1.453793537
H -3.6009257147 1.7473603681 -1.6616327575
H -2.3000762803 1.6350557214 -0.773494697
O 0.2652259692 -0.612178934 1.8477239004
H -0.4825069802 -0.9743672637 2.3344301416
H 0.4436265819 0.2765007179 2.2285406669
O -0.4189624676 0.1904376689 -2.3054644029
H -1.2977570694 0.6046209329 -2.3991046004
H 0.2046424754 0.7572032817 -2.7697465046
O 0.7161067694 -2.0130651078 -0.7187328102
H 0.7959924724 -2.3100132762 -1.6293082368
H 1.550020683 -2.2169474247 -0.2572170674
O 1.8044284741 0.6793017685 -0.2086348748
H 2.5116790534 0.0765438012 0.0622088468
H 1.820125117 1.4198105767 0.4198932833
O -2.0159833465 -1.0665278545 -0.1703785873
H -2.6768880889 -0.4547108982 -0.5471677921
H -2.2378678889 -1.9554733168 -0.4584450742
F -0.9234932897 1.518656008 0.2208912216
Mg -0.1280002565 -0.1558632516 -0.2378279583
26

O 1.9230372408 -2.0218347064 -0.2000628496
H 2.186516427 -2.8065325446 -0.6883148696
H 2.660867719 -1.3951975115 -0.2426062755
O 0.1430502778 -0.7155450359 1.5552957473
H 0.8768082887 -1.1079031046 2.036113653
H -0.1739042226 0.0556079867 2.0670365576
O -0.9072444514 1.0406202291 -0.8309609497
H -1.8161863701 1.0020384011 -0.4982203989
H -0.5128569075 1.8793080093 -0.5295242378
O 0.7661662506 2.6740340822 0.5752529296
H 1.2039233862 3.5247351733 0.4953850052
H 1.3906180268 1.9762480671 0.2383240671
O -2.9293351189 0.1249665861 0.8077963764
H -2.5010197848 0.5957068628 1.5412436877
H -3.8779603015 0.1858654826 0.9506367854
O -1.3536988657 -1.7348933292 -0.6811337358
H -1.4156137305 -2.6892720041 -0.5906713878
H -2.0324301905 -1.3492203216 -0.0975662973
O -0.975123654 1.593583764 2.3991497104
H -1.0432606751 1.98141896 3.2760515938
H -0.361351371 2.1589592131 1.8822192536
O 0.7091161138 -0.7587913023 -2.6156291177
H -0.0098666987 -0.680021925 -3.2499640412
H 1.3806640933 -0.1160394631 -2.8728989385
F 1.88454235 0.6089763066 -0.4459876835
Mg 0.3919205302 -0.5593423262 -0.5360499857
26

O 0.745507365 0.8034599567 -2.9986646926
H 1.1747817008 -0.0632637903 -2.9045557442
H 0.6640055148 0.9870004215 -3.9375757146
O 0.8767439939 -0.4198783545 2.5006718615
H 0.8964487292 -1.3792398512 2.3910180218
H 1.7727689501 -0.1609770386 2.7388380335
O 1.8974025249 -1.4142207677 -1.7671799839
H 2.4728516378 -2.1539827576 -1.9752810682
H 1.2066511655 -1.7269616486 -1.1369197269
O -1.9115064514 -0.0408199788 1.567177105
H -2.4298815951 -0.64762773 1.0013297205
H -2.1101683428 -0.2424204978 2.4843725194
O 1.8916569038 0.6904171605 -0.0579689258
H 2.1129286197 1.5477248583 -0.4327579065
H 2.1855955379 0.0121441427 -0.7012148799
O -2.4666842669 -1.4889549324 -0.6055705322
H -3.0330419426 -2.1784065652 -0.9597723892
H -1.561968873 -1.8488042587 -0.5063495611
O -1.0210096145 0.9603379398 -0.9839256995
H -1.7735817325 0.3827001084 -1.1812548499
H -0.4716483935 0.9793828851 -1.802214268
O -0.0863061285 2.2910928747 1.3074645833
H -0.7835129103 2.7499899963 0.8247020492
H -0.0423919938 2.6859636218 2.1826432322
F 0.0817704686 -1.5608967653 0.0734710827
Mg -0.0139087787 0.2559027836 0.6983186499
26

O -0.7459619074 -2.1214553545 0.8161659992
H -1.5209772096 -1.9803056759 1.368946241
H -0.0203596705 -2.3638708348 1.4214827927
O -1.8341067846 0.5928446763 0.0964272316
H -2.5753560771 0.7790995858 -0.4846012635
H -1.672630903 1.3905929837 0.644034982
O 0.5365507345 0.9384658784 -1.7256382817
H 0.2371831923 1.8726250338 -1.5755482158
H 1.4872834223 0.9786970605 -1.8653581426
O -0.415358399 3.3232142747 -1.0978433887
H -0.2108976684 4.1961933573 -1.4401709532
H -0.4264740492 3.3738179951 -0.1261082908
O 1.7371210178 -1.8730747392 2.0479826285
H 2.2694792409 -2.0517636941 2.8259995737
H 1.5107739632 -0.9159020793 2.019941421
O -1.0404595279 -1.405261566 -1.9400454543
H -0.9903231626 -1.0746290584 -2.8418846423
H -1.3624789458 -2.3105321948 -1.9706923693
O -0.5982741321 2.5312064582 1.524380354
H 0.0572584173 1.7983675568 1.6171476057
H -0.7401088566 2.9147042362 2.3929118798
O 1.716086601 -1.5381234653 -0.6443040557
H 2.0842238769 -1.8270859823 0.2130656421
H 1.9211440057 -2.2164991295 -1.2923756132
F 0.7310880486 0.3495921323 1.2265247676
Mg -0.0708924853 -0.4547631619 -0.310563869
26

O 1.0446993395 -2.7606743738 0.8076545504
H 1.4821341901 -3.5609412561 1.1086147676
H 0.3798761767 -3.0060321847 0.1223250924
O -0.782659318 -0.887157696 1.6249224151
H -0.1711405597 -1.6492650933 1.625297921
H -1.653061817 -1.2538599436 1.4348044523
O 1.3230963298 0.5139644341 -2.5698240082
H 1.5351942566 0.3934094473 -3.4980979994
H 0.4347632012 0.1348485048 -2.394733132
O -2.1277923967 1.4411870954 0.4919225839
H -2.4492310028 2.3170629909 0.7232800961
H -2.5267553549 1.210543483 -0.3570796606
O 1.7256874843 -0.1938761092 0.1532954342
H 1.741439483 -1.1515966733 0.3520126462
H 2.0358858234 -0.0927790272 -0.7607646954
O -1.0424677914 -2.7409205391 -0.8297295109
H -1.0304788363 -1.8191810128 -1.1649600634
H -1.4042086211 -3.2964781167 -1.5237332137
O 0.5307417434 2.3304102569 -0.7480149836
H 0.9747095571 3.1429912482 -0.4972181398
H 0.8912381837 2.027343586 -1.6042784393
O 0.4762978786 1.6453233322 2.0945680888
H 1.4266645254 1.6319539442 2.2526511792
H 0.0632992304 1.392520713 2.9274259322
F -0.8324801368 -0.1393888836 -1.2722573401
Mg -0.1738512575 0.6714411437 0.3324161422
26

O -0.9444220983 2.1721713646 2.1409777928
H -0.652590893 2.7586592822 2.8414756896
H -0.1472833257 1.8047171292 1.7017526
O 3.1116689806 0.8773917751 -0.5127798088
H 3.9223452096 1.3656471297 -0.3506760776
H 2.4414219038 1.1488139814 0.1537606006
O -2.6956902577 0.2456124562 1.8229690028
H -2.1665174832 1.0099874235 2.1637287633
H -3.5390303282 0.2268665877 2.2819788109
O -0.7988838317 -1.5245840879 1.0909581706
H -1.5276227224 -1.0558822056 1.552640696
H -0.1794695777 -1.8188196725 1.7661241114
O 0.8942705908 0.6339208357 -2.1134374606
H 1.786635813 0.9362403834 -1.8562043298
H 0.9150914576 0.437572573 -3.0527881479
O -0.7528503962 -1.9007813646 -1.7115435595
H -1.1433411247 -2.6147211576 -1.194766671
H -1.4040985042 -1.6699403021 -2.3818114734
O 1.8215354226 -1.5471569611 -0.2745064821
H 2.5816128651 -0.93514165 -0.2661121299
H 2.0655124984 -2.2978539501 -0.822265133
O -1.7337232054 0.6667493805 -0.7058933265
H -2.3268720106 0.6069943681 0.0697578448
H -1.6173147183 1.606613581 -0.8807688667
F 0.8596133635 0.9199004405 0.69410571
Mg 0.0709422508 -0.3785921307 -0.452011996
26

O 0.9000783355 0.3019922294 -2.6267542877
H 1.0644505628 -0.0777325502 -3.4934092451
H 0.5436191455 1.1889794582 -2.7607720763
O 0.872901971 -2.2394604922 -1.0512968942
H 1.8294033364 -2.2999851889 -0.9650729411
H 0.5583569204 -3.066129431 -1.426637476
O -1.0971908418 -1.0240434823 0.8468167114
H -1.3408907619 -0.2617308815 1.4086964571
H -0.5772636038 -1.5800921189 1.4428576721
O 1.0171743504 -0.9320385347 2.8138836387
H 0.4329121758 -0.2267836306 3.141429033
H 1.5340092074 -1.2452654565 3.5607565266
O 0.3899574373 2.6357339504 0.9495816154
H -0.1559180278 2.3718409458 0.1633018198
H 0.5323320666 3.58438816 0.9080199566
O 1.5835881197 0.1557084518 0.3366291938
H 1.5942455833 -0.253772528 1.2238095556
H 1.5674004755 1.114522821 0.5023548725
O -1.7573108686 -0.9611734627 -1.9912095466
H -2.1663081344 -0.1015985653 -2.1595179673
H -2.4369851558 -1.4938352509 -1.5655294857
O -0.9473942068 1.0521085153 2.7047838083
H -0.5327756938 1.7915086051 2.2090968091
H -1.5943243346 1.4364174998 3.3021313356
F -0.7963822025 1.3921305865 -0.9194278536
Mg -0.06039437 -0.3513537391 -0.8514927735
29

O -1.4037637312 -0.8516915755 -0.0360347977
H -1.6831908159 -0.9015815466 -0.9680337739
H -0.93597661 -1.696809499 0.1386068436
O 0.9839217474 -1.4789628746 -2.3102510235
H 1.3044270201 -0.8312055293 -1.6548241724
H 0.9173065244 -2.3057619693 -1.8184104231
O -0.9081968159 1.6907232991 -1.3850687346
H -0.4168030926 2.4105854673 -1.7891227158
H -1.1342815694 1.0467255171 -2.0939927904
O -1.4192540533 -0.5118357338 -2.7948492822
H -1.8716809001 -0.722256843 -3.6151630022
H -0.5232795705 -0.9416640553 -2.8062281412
O 0.7770116563 2.6616122067 0.7487744699
H 1.6838744855 2.4347530693 0.5059342308
H 0.8236362413 3.1787011962 1.5578913526
O -2.0230598491 1.5924942527 1.3357654774
H -2.4209404654 2.4036240251 1.003451105
H -2.7209084322 0.9273938523 1.3206664245
O 0.2415199494 -3.0292592724 0.2276849042
H 1.0183012605 -2.7604712332 0.7516368835
H 0.0379895407 -3.9372972802 0.466593272
O 2.2219409792 -1.544607962 1.4791879045
H 3.1422376064 -1.7073791576 1.7000994729
H 2.1882976679 -0.8758911855 0.7528485385
O 0.2219762447 0.0708328802 2.3092470913
H 0.9683273539 -0.5609097587 2.3363324549
H -0.2986435307 -0.0276657051 3.1088259079
F 1.4467079595 0.2191289429 -0.2185486118
Mg -0.2567759838 0.8291482295 0.4126375165
29

O -1.9949245839 0.74071389 -1.4857580501
H -2.7766919312 0.1842881679 -1.3086419649
H -2.3028818783 1.6117804453 -1.7488764113
O 2.8808443595 1.6434621565 0.4725952203
H 3.6458375698 2.1490296418 0.7613479038
H 3.2226085833 0.877882727 -0.0182834159
O 0.8274812376 0.2557060808 -1.6287743145
H 1.6770645478 -0.2210925674 -1.5497864593
H 0.4221183604 0.0016325686 -2.4626817374
O -3.4664217021 -1.0655077255 -0.085590781
H -4.2011843702 -1.6818934934 -0.1264924433
H -2.6270364183 -1.5766250939 -0.0820698827
O 0.8660136445 0.0484343665 1.5054430225
H 1.6631290287 0.6032031182 1.4876278753
H 1.1559323735 -0.8785997675 1.5662845655
O 0.0761201672 2.3852384804 0.0220918497
H 1.0413273702 2.469964251 -0.0333802321
H -0.2329639556 3.0253654517 0.6689992145
O 1.35666748 -2.5180836386 0.6343867744
H 1.3962952545 -3.41851837 0.9651602422
H 0.4383199449 -2.3565123852 0.3010455319
O 3.1038948093 -0.9489965578 -0.7820061135
H 2.6440617 -1.6650382168 -0.2941692774
H 3.8272260109 -1.3547448549 -1.2677961359
O -2.0238989747 0.7526806325 1.4166599001
H -2.7949485282 0.1982753096 1.1970321315
H -1.8039207211 0.5734264355 2.335751373
F -0.9206082323 -1.5229832508 -0.0635013308
Mg -0.523413241 0.3572368294 -0.0273956283
29

O -0.3783648236 -1.4995963374 0.4418125877
H 0.24857713 -1.9174907984 1.0536223884
H -0.2991568533 -1.9568755796 -0.414468236
O 2.1083878934 -0.4793829978 -1.8808307869
H 2.1911655387 -0.1993844928 -0.9368540996
H 2.9768116999 -0.4081772519 -2.2844566455
O -0.1452117076 1.0330616738 -1.5205669488
H 0.6667750441 0.7213936761 -1.9571698409
H -0.8951692464 0.7653420198 -2.0741339214
O -2.3466713903 -0.4623999356 -2.2550207755
H -1.7579595045 -1.223956998 -2.3900297691
H -3.0400717457 -0.5171608586 -2.9184479467
O 0.1012346461 2.6611776602 0.9665113015
H 1.0461982982 2.8375485012 0.8870728527
H -0.3529505103 3.3575996883 0.4823624043
O -2.2578890685 0.7474929037 0.3010235658
H -2.7871514252 0.4214569015 1.0354207012
H -2.562070302 0.2792335003 -0.4969020519
O -0.0603208493 -2.2022330782 -2.2086335865
H 0.7941620059 -1.7298012569 -2.2637621975
H 0.0723989074 -3.0695245623 -2.6015339171
O 1.6077536951 -1.4275454766 2.3913832194
H 2.3137277484 -1.8621248421 2.8753058341
H 2.0047091417 -0.7756071229 1.7761800044
O -0.4255802064 0.3581971298 2.6066228779
H 0.221213217 -0.3026488815 2.92065917
H -0.3452920422 1.1278421717 3.1771284827
F 1.7488468512 0.426699901 0.5375737069
Mg -0.1730795798 0.5991537075 0.5250970619
29

O -2.0015063363 -0.0540691805 -0.6164813605
H -2.4647704948 -0.6400429989 0.0036601056
H -1.7318664921 -0.6253621594 -1.3573236645
O -1.2397052681 0.8145440013 2.2039848484
H -1.6996280752 -0.022196272 2.4103902335
H -1.8165776383 1.5426592609 2.4485192366
O -0.4626162213 -1.444918094 -2.5759076588
H 0.2508260234 -1.9725636895 -2.1676856581
H -0.6478927747 -1.827199408 -3.437799914
O 3.1523620702 0.0921992593 -0.6634776548
H 2.8907516062 -0.8449148214 -0.7654281535
H 4.0796624297 0.164048576 -0.904314908
O 1.523637015 1.4688663042 1.1040738098
H 2.2869879293 1.028074913 0.6820280603
H 1.6612721705 1.4251255115 2.0548807673
O 0.6362669666 0.8349209999 -1.5328204214
H 0.3155786645 0.1775557752 -2.1762729302
H 1.6051170665 0.7588635016 -1.5244064141
O 1.6909727141 -2.2566684804 -0.9653546291
H 1.1400243718 -1.9626532636 -0.190334047
H 1.9950417666 -3.1496287328 -0.7828533261
O -2.1488374531 -1.6779962604 1.7359153328
H -2.4733195237 -2.4701521465 2.1704563587
H -1.2194294676 -1.829170408 1.4655356354
O -1.0200973083 2.6564491565 0.0601331157
H -1.7179533242 2.7363045853 -0.5988536893
H -0.3845163786 3.3541416992 -0.1297589997
F 0.2190021422 -1.1437930169 0.7725662911
Mg -0.2656537992 0.6763559767 0.3559614576
29

O -1.6991178674 1.256609973 -2.067988019
H -2.5936593849 1.6020373369 -1.9825107504
H -1.7393775792 0.5519344962 -2.722361363
O 2.7882932757 -0.7377108993 1.2669963102
H 2.4276815945 -1.5876841966 0.9464182596
H 3.4637500283 -0.9353410173 1.9218354002
O 0.555645808 -0.4681955741 -1.4033342214
H 0.746046337 -1.3708945298 -1.0851296829
H 1.4210138739 -0.0543804219 -1.5490643243
O -0.9907414112 -2.4537737606 1.5198694948
H -1.5364860738 -3.0502867329 2.0367806575
H -1.5781210684 -1.9281861995 0.9026043357
O 0.0992910613 0.1226471021 1.5894870461
H 1.0603906398 0.0502610378 1.7009036286
H -0.2647567113 -0.7310937764 1.8869934644
O 0.4900015392 2.2763295187 -0.3713000343
H 0.260346914 3.0343105641 -0.9161316978
H 1.4343448249 2.0774452283 -0.5245363776
O 1.249954499 -2.7399822856 0.0924381444
H 1.4817442323 -3.6142505266 -0.2332392345
H 0.4311315822 -2.8414587913 0.6340676076
O 2.9006963866 1.0282850905 -0.8413798608
H 3.7296928519 1.3001298531 -1.2446357632
H 3.1197985984 0.4385484015 -0.0934455356
O -2.3103015428 1.8120591804 0.6885764043
H -2.9096157588 1.0886970083 0.9193161575
H -2.190752848 2.3528062577 1.4747082549
F -2.0570665995 -0.7562333875 0.0076450558
Mg -0.7947717899 0.6284126476 -0.241733175
29

O 0.2994797191 -2.2043683546 -1.3574240261
H -0.1710147963 -2.991679085 -1.0676880619
H 0.3653828929 -2.2582769675 -2.3170341631
O 0.6251474013 0.3676521861 -2.5307672742
H 1.5332185714 0.6856386639 -2.5068199423
H 0.0769475358 1.106085349 -2.8560925264
O 1.8381076076 -0.2326080657 0.0678789183
H 2.2078139196 -1.1061394764 0.2390101672
H 1.9470578338 0.2582085624 0.9072144144
O 1.314340951 -2.1030691181 2.3903561027
H 1.6069104312 -1.2776072254 2.8112466538
H 1.4375725952 -2.8075923122 3.0318502544
O -0.8629264745 1.3568053889 2.4332915248
H -0.8000090711 1.669187986 1.4963745423
H -1.4381767772 1.9558629527 2.9149130858
O 1.7626794773 0.6497271023 2.693402869
H 0.8684447179 1.0404003913 2.7865346735
H 2.3729208791 1.2171893297 3.1718961425
O -0.8733405025 -1.1074859573 1.0944183017
H -1.1755268588 -0.4139647297 1.7074354538
H -0.2101028442 -1.6186654923 1.6045238201
O -1.4093963207 2.2003839565 -2.4259736313
H -1.1202733645 2.3232346476 -1.4964866883
H -1.7297113826 3.0396340707 -2.76443277
O -2.0063876427 -0.3365538839 -1.6324526657
H -2.8104690001 -0.6534161084 -1.2132039066
H -2.204772394 0.5267350649 -2.0390474514
F -0.4727741774 1.5674135133 -0.0810295716
Mg -0.1343287859 -0.234303232 -0.6462330058
29

O 1.0852051284 0.9662249689 -1.5447021647
H 1.7470166588 0.2488459513 -1.6146010794
H 1.57321627 1.7936581352 -1.498229476
O 3.3205819813 0.8232884322 0.6150312095
H 3.3771041874 -0.0254607231 0.148097471
H 4.1589840856 0.9645537537 1.0615484837
O 0.7671869307 0.9479084141 1.4862405793
H 1.7323298079 0.9759265522 1.3009557539
H 0.6443362471 0.2808272903 2.1812295127
O -0.1987269201 -1.426019123 2.5287643106
H 0.0004173945 -1.7728350044 1.6403283319
H -0.0656842602 -2.1312758042 3.1667384073
O -2.0671540822 0.0616929939 1.0990912306
H -2.6610065576 -0.5732146691 0.6714633441
H -1.7364871839 -0.401938378 1.8867840669
O -0.8829896342 2.5839605999 -0.089585136
H -1.7387024462 2.904638717 -0.3907969452
H -0.711799891 2.9923714595 0.7656859926
O 2.5157718888 -1.291381142 -1.0488910098
H 2.900790243 -1.9998617828 -1.5703362915
H 1.644963811 -1.5981398185 -0.7147461501
O -2.4825548188 -2.0099355089 -0.832773956
H -2.8859620076 -2.8500505515 -1.0641351908
H -1.5379931183 -2.1628629678 -0.6428822121
O -1.768709949 0.3976806899 -1.7799808863
H -2.2308347405 -0.4632096189 -1.7727416728
H -1.4313331089 0.5407677767 -2.6687879872
F 0.0435162388 -1.3933130132 -0.1688678819
Mg -0.429414378 0.517014944 -0.1674224056
29

O -0.1015621218 2.6900393363 -0.8574786633
H -0.5526750651 3.1942522542 -0.1716155398
H 0.6845759214 3.1918990002 -1.0968402182
O 1.5723854028 0.6015201819 -1.9584576323
H 1.3225059003 0.351691255 -2.8523032531
H 2.3226496509 0.0293859991 -1.697398017
O -3.1936362218 -0.7522480212 -0.0030174826
H -2.790703643 -1.623034786 0.2351386796
H -4.1487196887 -0.8488508548 0.0263596745
O -1.604619286 -2.7761695428 0.6189633152
H -1.6060963481 -3.6964951797 0.3475849409
H -0.7537945148 -2.3823316176 0.3402543833
O 1.7486750524 1.1957108234 0.9026802766
H 1.5485075239 0.8925522505 1.8036371657
H 2.5587918218 0.7208625717 0.6601240053
O -1.3919545804 0.2519095733 -1.7524888467
H -2.175299782 -0.1739301843 -1.3427655027
H -1.7205039278 0.9748781462 -2.2944982054
O -1.2654346438 0.9295482998 1.1084780824
H -2.1079940518 0.4758180981 0.9199653077
H -0.9409162834 0.5656496082 1.9511080251
O 3.0761020009 -0.9596418782 -0.3860546758
H 2.2473631018 -1.4154249445 -0.140807547
H 3.7892383484 -1.6025798657 -0.3977159931
O 0.447203004 -0.4354686749 2.7639302091
H 0.4844875184 -1.084345526 2.0405582316
H 0.4656020602 -0.9146465792 3.5963065575
F 0.4825079162 -1.2249335002 0.1348901416
Mg 0.1644620316 0.6197567968 -0.3985033122
29

O -1.5600472 0.4396888364 -0.5926371336
H -1.8100884904 -0.2839155137 -1.1824306598
H -1.7105514649 1.2766185369 -1.0563439017
O -1.1753044287 -0.0078329971 2.3610833473
H -1.0438047986 -0.8044875186 2.90070719
H -1.5610685517 0.6812309603 2.9048505366
O 0.2970863311 0.7100522514 -3.2163612297
H 0.5964539125 0.6395102509 -4.1272514669
H -0.1511191273 -0.1346042554 -2.9973613063
O -0.6314245519 -1.7004704661 -2.2339834134
H -0.9060195051 -2.5052041926 -2.6816579502
H -0.4482469526 -1.9430436525 -1.2960583071
O 1.6522083691 -0.1067606764 2.0446201722
H 2.5557970242 -0.1878557466 1.7265077802
H 1.4719568612 -0.8937655368 2.5906700909
O 1.581978036 0.0790425951 -0.8435587563
H 1.3595989182 0.5367463032 -1.673959064
H 1.6796912087 -0.8442945993 -1.1045546916
O 0.199262731 -2.3156494246 2.8786640695
H 0.0590493597 -2.4715259798 1.920233531
H 0.2377872693 -3.1625617585 3.3280073877
O -0.7855395231 2.8427689824 -1.7721923446
H -0.4114095212 2.3087858939 -2.4977692921
H -1.1000125426 3.6692558372 -2.1488232687
O 0.197489888 2.1742605251 0.7106259739
H -0.0486687607 2.6506500546 -0.1057329855
H 0.9210808285 2.6447928034 1.1324191213
F -0.0878854687 -1.7875681014 0.3307928173
Mg 0.0528283871 0.088460769 0.6803425189
29

O -0.6483076533 2.6896766225 -0.4082314651
H -0.2578297335 3.2408720534 0.2771359593
H -0.435726243 3.0946195596 -1.2553412792
O 1.4447843351 0.6696694282 -1.0564438987
H 2.1737683067 0.6385397313 -0.4106441985
H 1.5996235848 -0.0363890787 -1.702467457
O 0.5209903992 -1.515514394 -2.5894578558
H 0.7515222024 -2.2575540247 -3.1539113935
H 0.200018485 -1.867001146 -1.7394692197
O -1.6282211254 -1.2197467293 2.2791006568
H -1.2071484038 -1.6402681657 1.5045619552
H -1.9572476857 -1.9132047676 2.8562744321
O 0.2275044128 0.9087098433 1.6900347218
H -0.2147832679 0.3239681103 2.3233306749
H 1.1907116195 0.7830274371 1.8030786881
O -1.2012131185 0.5286444329 -2.2272622684
H -2.1431980908 0.4041602369 -2.3745446217
H -0.7370286939 -0.1799857993 -2.7140602112
O -2.4591785048 0.5976082355 0.4702396133
H -2.9280129897 1.4018180314 0.7077462183
H -2.5479294213 -0.032947096 1.2109223493
O 2.8697128754 0.330961199 1.2932319542
H 2.7990450052 -0.648336209 1.2441662184
H 3.7256054025 0.5547970705 1.6668888014
O 2.0469675458 -2.1334569442 0.7416651963
H 2.1315383343 -3.0280796772 1.0771525214
H 1.1115166185 -1.9894157168 0.4980458704
F -0.3931106124 -1.3668537128 -0.0598996525
Mg -0.4886116044 0.574603785 -0.2551554717
