14

O -2.3710699426 1.5796363023 0.2954994758
H -2.5519657077 2.0456454088 1.1145080816
H -1.4473095857 1.8216997982 0.0647420247
O -2.6260324034 -1.1182363924 0.0567572933
H -2.6729986948 -0.1428349638 0.1583639377
H -3.4920934739 -1.3974907143 -0.2427221191
O 1.3622886439 -0.118564498 -2.377907946
H 1.6732713154 0.0946876364 -3.2587032946
H 1.2606540108 0.7341389035 -1.9098541169
O 1.4316816267 0.1238040228 2.1225089912
H 1.9575067887 0.4043211112 2.8728232501
H 1.319396067 0.9125016759 1.5536900556
Cl 0.6506816607 1.9908883372 -0.216659811
Rb 0.1937527864 -1.2163352038 -0.0462509811
14

O -1.2568748641 -2.224676824 -0.0018647261
H -0.6664125424 -2.1699960868 -0.7714899699
H -0.6675604749 -2.1713544523 0.7687355827
O -2.9774668886 -0.1176117797 -0.00040875
H -3.9225643231 -0.2727283007 0.0005428754
H -2.5457089536 -0.9980005521 -0.0012204305
O 0.5456131994 -1.2835705015 1.9597370809
H 0.8166960711 -1.6082438945 2.8205182032
H 1.3758227609 -1.0939793948 1.4597943263
O 0.54832738 -1.2801807051 -1.9592985653
H 0.8205191008 -1.6033268289 -2.8203061406
H 1.377917492 -1.0916525307 -1.4579131663
Cl 2.6146409282 -0.2676472646 0.002440143
Rb -0.3197032752 0.8641638136 0.0011506222
14

O 0.1034373123 2.0553597751 1.4929290058
H -0.8440113324 1.8212395103 1.4239566791
H 0.1915220028 2.5816589725 2.2886877976
O -1.4352190221 -1.8616039288 0.9495891545
H -1.8646046352 -1.1470675363 1.4351903741
H -1.5671637424 -1.5977882656 0.0174937937
O 1.2517707917 -2.1041110343 1.22745082
H 0.2700983542 -2.1494585762 1.2369661872
H 1.567264904 -2.8944092349 1.6670515853
O -2.3920772823 0.9864405249 0.9988777028
H -2.2362727228 0.6997658209 0.063757465
H -3.2568771442 1.402488963 1.003280256
Cl -1.5370411632 -0.144562971 -1.677841179
Rb 1.217255891 0.2156929132 -0.3540530035
14

O -0.8723130429 -3.0210562373 -0.4291405923
H -1.2366999835 -3.7544148336 -0.9258866863
H -1.4849877782 -2.2660658061 -0.5479107422
O -1.1477804723 0.5176367965 2.1470174145
H -1.433427991 1.0498964266 2.8920329594
H -0.8450533811 1.148602165 1.455859444
O 2.8742264975 0.6121833824 -0.1052911027
H 3.6558967463 1.0770602035 -0.4065659563
H 2.1125032917 1.1852932508 -0.3272387796
O -2.1618321618 -0.6236867813 -0.3964502801
H -2.3469653963 -0.3663937309 0.5150277205
H -1.6319900273 0.1244586634 -0.7298819224
Cl -0.0080503581 1.6895144284 -0.4268581148
Rb 0.8738917248 -1.1718854005 0.7985529144
17

O -3.0146290587 -0.5641893117 0.517642357
H -2.2995505361 -1.0183920006 1.0055635829
H -3.7681588251 -0.5283949699 1.1081652957
O 1.6410229166 1.1779788694 -2.3080894388
H 2.0159486416 0.8764770264 -1.4595542089
H 2.2220079174 1.8756625117 -2.6161528755
O -0.6794674334 -1.7229787273 1.3672223852
H 0.1126874831 -1.1709000177 1.4801834417
H -0.4168911652 -2.3394006638 0.671427986
O 0.5712697013 -2.1672029413 -1.2116883191
H 1.0571886598 -2.7394448578 -1.8091189773
H 1.2438674645 -1.6344831046 -0.7391778892
O -0.0591954009 2.3099156699 0.8705066898
H -0.099862405 2.8951537458 1.628186186
H 0.7184713384 1.7377133753 1.0054737843
Cl 1.9607970114 -0.0584679849 0.566952259
Rb -0.9077821874 0.4501996899 -1.1340534621
20

O 1.4832039481 -1.0977858085 1.8207985893
H 1.603568636 -0.1522174407 1.9956130807
H 2.2153816946 -1.3481093704 1.2439735622
O -0.0288599778 1.3602700753 -2.2793267313
H -0.2854868079 1.8548477957 -3.0601488378
H -0.5311896534 1.7459982807 -1.5256000771
O 1.524177592 1.7829397431 1.6713802157
H 1.7366086873 2.5019254409 2.2704438977
H 0.5912906159 1.9247763367 1.3933322388
O 2.4400817707 1.0963760993 -0.9387305376
H 2.2647013942 1.4799811147 -0.0634931174
H 1.6923047204 1.3612943787 -1.4999583928
O 2.6278800346 -1.583127382 -0.834291261
H 3.3931690915 -1.9628278501 -1.269256408
H 2.7008869155 -0.6063307572 -0.939203788
O -3.0866544285 -0.5194732561 -0.2181051526
H -2.7933938695 0.3686498558 0.0602979281
H -4.0415730164 -0.472844919 -0.2825031547
Cl -1.2771130524 1.9478933004 0.4229138699
Rb -0.2999162567 -1.0894155322 -0.456423675
20

O 1.4140730044 -1.0473162196 1.8860090819
H 1.544382998 -0.1025182565 2.0577654126
H 2.1506945181 -1.3086509388 1.3197742195
O -0.0707262655 1.3681486329 -2.2484402589
H -0.3182721228 1.8648393431 -3.0308379241
H -0.5708971641 1.7604422933 -1.4966235632
O 1.48313479 1.8265146936 1.6903729041
H 1.7027691405 2.5582672865 2.2710554329
H 0.548497088 1.9646844679 1.4155152035
O 2.4003225376 1.1017018838 -0.909109637
H 2.2206219403 1.5021263914 -0.0421037619
H 1.6579086992 1.3630691969 -1.4789645884
O 2.5928702188 -1.5752304799 -0.7489551908
H 3.3614890262 -1.9656053266 -1.1679650755
H 2.6684749516 -0.6015064138 -0.8756167071
O -3.1261786903 -0.5199119274 -0.1643685644
H -2.8409094205 0.3745578336 0.1028412152
H -4.0828827891 -0.4891360223 -0.2152149886
Cl -1.3226825062 1.9662440024 0.4490070583
Rb -0.3366664933 -1.064640403 -0.41386729
20

O -2.2777934152 0.0263985621 1.3172546094
H -1.7837006909 0.7408323464 1.753202789
H -2.5496665161 0.3814383326 0.4560425951
O 2.7650120902 -1.3572060341 0.2968559175
H 3.6131643094 -1.7607648575 0.4842404576
H 2.758246338 -0.4904838847 0.7494048723
O -1.5523402413 -2.5816590242 1.006160098
H -1.9615413216 -1.7506096143 1.3141644548
H -1.983181672 -3.2965944543 1.4757572345
O -2.3312853705 0.7762898588 -1.4116570906
H -3.0011774573 1.0963691434 -2.019010637
H -1.6319878624 1.4653455861 -1.377977999
O -0.4888747412 2.0737459203 2.0944335122
H -0.3286536635 2.3381061534 1.1601285738
H -0.6643307024 2.8872154051 2.573113493
O 2.2169184007 1.1357543852 1.2620641993
H 1.5590924087 1.307831654 1.9472196073
H 1.88828141 1.6558030146 0.5076073855
Cl 0.2243858056 2.3512502911 -0.8813685042
Rb 0.1120860692 -0.9007574359 -0.5857596286
20

O 1.0703723384 -2.0408741458 1.5608701902
H 0.1708552246 -2.3597571052 1.3042893547
H 1.4173107318 -2.6689347366 2.19663206
O 2.2998535936 -1.2390150766 -0.9315868316
H 2.0589786449 -1.7480647658 -0.1428756607
H 1.5137872255 -1.2889450931 -1.5040472236
O 2.847190416 1.2998799556 -0.1276444507
H 3.6641482591 1.7237460955 -0.3925152272
H 2.8528563336 0.402691553 -0.5232722078
O -2.4215397536 1.1703428186 -0.9561866055
H -1.972274109 0.4600479491 -1.4780399397
H -2.9843296051 1.6440207035 -1.5718172159
O -2.6377159597 0.0025816786 1.4841478598
H -2.8462258991 0.437705904 0.6330944842
H -3.4098578425 0.0997339105 2.0445512696
O -1.403791184 -2.5153620952 0.6587085939
H -2.0068858925 -1.8414513335 1.0038848746
H -1.2981242527 -2.2813257969 -0.2844416614
Cl -0.6937242959 -1.0533155939 -2.0203140233
Rb 0.2008597374 0.6284973807 0.6185710456
23

O 3.3467875183 0.304996013 -0.2618334079
H 4.2201224952 0.0927462813 -0.5979146134
H 2.708307566 -0.1765668259 -0.8269107685
O 1.8097905136 -0.5422977041 2.0236113074
H 2.5108586336 -0.2280223368 1.4325617763
H 1.7103160738 -1.4737738814 1.7879635463
O -3.137059768 1.2274683449 -0.2602918634
H -3.9222081248 1.6642500348 -0.5919514318
H -3.0202638019 0.4125132636 -0.789816771
O -1.5070810291 -2.137121325 1.2491132416
H -0.6664551194 -2.6090725469 1.085953526
H -1.9964310049 -2.6617382466 1.8858422567
O 1.248575787 2.2640625334 -0.8729987347
H 1.0577550974 1.6061822893 -1.5553090808
H 2.1440484315 2.0264981334 -0.6002449888
O -2.3427367002 -1.1541750792 -1.3367387162
H -2.2126124788 -1.689178917 -0.5396377015
H -1.4645716075 -1.1266323573 -1.7493058992
O 1.019584398 -2.9765905406 0.5552800085
H 1.3435201051 -3.8439509417 0.3029235735
H 1.0479085774 -2.4209382604 -0.2592407247
Cl 0.8636797873 -0.9237516758 -1.6979266827
Rb -0.5613186612 0.728133361 0.8636737355
23

O 2.7681903701 -0.9452689644 0.5402514223
H 2.5522521043 -1.8852547721 0.5690767627
H 2.4181858821 -0.6688641718 -0.3230916812
O 1.7630945598 0.5609050757 2.5988453346
H 2.2561283288 0.0212606361 1.9478345534
H 2.4230984219 0.9944003236 3.1415434556
O -3.1907844981 1.0890097189 0.0673105757
H -4.0480445946 1.4627855216 -0.1400236059
H -3.0550952851 0.3369650909 -0.5439240996
O -1.0206023032 -2.2208283321 1.0365056283
H -0.2805922857 -2.7225613101 0.6399573123
H -1.3524900101 -2.7545801552 1.7611896192
O 1.0426459545 2.2888396908 -1.1762943449
H 1.107593883 1.4731260203 -1.7040545672
H 1.6043439379 2.9327514103 -1.6101956016
O -2.3068540848 -1.1088669719 -1.2968974506
H -2.0497364675 -1.6884467645 -0.5644154434
H -1.4847084117 -0.9893953088 -1.8007320098
O 1.1352879262 -3.2409861986 -0.3459251675
H 1.2208399653 -4.0783832431 -0.8070169343
H 1.0585854363 -2.5485742793 -1.0413741002
Cl 0.8146012242 -0.7070239547 -2.0215890995
Rb -0.4317061033 0.7579405243 0.7547391066
23

O -3.486388795 -0.031638571 -0.8222892047
H -4.3029080647 -0.2000735913 -1.2942981696
H -3.3753239678 -0.7568867876 -0.1836722622
O 0.4144654359 -0.9122600791 -2.3885654019
H 1.3909839981 -0.8748747348 -2.2293155569
H 0.295501426 -1.0039310956 -3.3357803015
O 2.986331035 -0.8411785731 -1.6390062146
H 3.1442936027 -1.6639391029 -1.1605944039
H 2.9344001638 -0.182491964 -0.9187199904
O 0.6376068969 3.1676365088 0.1038534679
H 1.3629639255 2.6124513634 0.4460676789
H 0.9261561192 4.0757815177 0.2048015094
O -0.1998347415 -2.6722781249 -0.2535081125
H -0.0400462608 -2.2675306706 -1.1214136274
H 0.6709623681 -2.6993341367 0.1840453896
O -2.3265975269 -1.6810714408 1.0406766187
H -2.572238333 -2.1604519361 1.8334507825
H -1.5769990084 -2.1710608875 0.6288310434
O 2.3573750296 -2.4058991383 0.8445638104
H 2.7773597582 -2.8552107636 1.5809448562
H 2.3604235147 -1.449225277 1.0693243575
Cl 2.2473957389 0.6621038803 1.019456451
Rb -0.7570562717 0.6834060019 -0.1696161825
23

O -1.7425540213 -1.4678887525 1.7326382605
H -1.7741316788 -2.016484467 2.5190176843
H -1.1249745543 -1.9044986635 1.1120024195
O -2.9133293863 1.6763017839 -0.7964930079
H -3.6070977101 2.1770754827 -1.2273271066
H -3.1419523249 0.7298521459 -0.9061878125
O 2.0235374175 0.5664112777 1.9519744456
H 2.4371527748 1.1196964922 1.2770738441
H 2.3560475946 -0.3270695602 1.7765463614
O -3.1061622637 -1.0545356421 -0.7898583076
H -2.3094346331 -1.4597588525 -1.1641634163
H -3.0537586263 -1.2950911677 0.1454335872
O 2.1027141023 1.9297976943 -0.6304043127
H 2.3643238688 1.1079164744 -1.1084121016
H 2.5468559924 2.6536229867 -1.0756675539
O 2.7023567368 -1.9925800896 0.8292087935
H 1.8298286317 -2.1791155185 0.4247289358
H 3.0419351196 -2.8356609662 1.1369433861
O 2.6749211701 -0.4911484728 -1.6826212461
H 1.8208512303 -0.9506300467 -1.7412786708
H 3.1211897071 -0.971950263 -0.9722233185
Cl 0.0141283219 -2.0435644747 -0.7339227911
Rb -0.4670457234 0.982642597 0.4964309527
23

O -1.1607646377 3.0106177243 0.8092651247
H -1.8207781883 2.3065729085 0.9570650209
H -1.5832946046 3.8305091262 1.0694312895
O 1.2622780034 -1.7033758889 1.7392880176
H 1.6131186904 -2.2257459004 0.9972555597
H 0.4075287934 -2.0879377297 2.0009104631
O 3.2341413325 0.1064191215 1.3811504177
H 3.9669826184 0.3146372607 1.9635204487
H 2.6842007402 -0.550977729 1.8446176367
O 2.6958227026 -2.3295598755 -0.5591213752
H 2.1089576041 -1.9415569002 -1.230587103
H 3.3073557346 -1.6269480823 -0.3141182008
O -1.5143398574 -2.0643382403 -0.9144826579
H -2.0020792307 -1.32348501 -0.5028106648
H -1.4033842269 -2.681755289 -0.1812489614
O -1.3812987411 -2.502043825 2.0417227622
H -1.8634906645 -2.9305186227 2.7520069452
H -1.820987084 -1.6358899633 1.8934238636
O 0.6732024269 -1.0548945215 -2.0653431487
H -0.1390426744 -1.4979993855 -1.7121910996
H 0.6016612561 -1.0898295552 -3.0213440787
Cl -2.4793431797 0.1926310358 1.0211411878
Rb 0.5884236766 0.8241228912 0.2458517556
23

O 0.0425888252 1.9243767778 1.8314043174
H -0.9050167236 1.7536026052 1.6586806894
H 0.2408421841 1.4093469476 2.6182845031
O 0.8964119474 -1.0096556342 2.5797500099
H 1.3826339498 -1.8396356607 2.6165853063
H -0.0071804491 -1.2573379696 2.2970253369
O 2.4980544773 0.1358114142 0.676759676
H 3.0274228204 0.8585899459 1.021916512
H 1.870157393 -0.0979843091 1.3965086382
O 2.6613778367 -2.6246701899 0.6051154311
H 3.3872401982 -3.1421462983 0.2506894086
H 2.9168291272 -1.6884907002 0.5276850669
O 0.1677517895 -2.1419667246 -0.687064553
H 0.9858868931 -2.4590286561 -0.2719042405
H -0.5250019099 -2.1944257324 -0.0073646909
O -1.5584366209 -1.7275283761 1.494359661
H -2.240178293 -2.246140918 1.9277101169
H -1.9995215277 -0.8750146533 1.2187166159
O 0.2764156316 -0.9576174312 -3.147576028
H 0.1707581452 -1.6078825817 -2.429616335
H -0.0504119681 -1.3721210472 -3.9471721954
Cl -2.6272868613 0.9031364851 0.5920227327
Rb 0.0961257014 0.9334894426 -0.9803918826
26

O 1.4793516497 1.9138284938 0.6580565819
H 2.0117605428 1.2183534756 1.0724169123
H 1.8191437744 1.9767459625 -0.2472869969
O 3.2419878389 -0.8951605729 -1.1869205699
H 3.2229674872 -0.8429076698 -0.2176961932
H 2.5639741622 -1.5547695314 -1.4077932097
O -3.0537693826 0.5131638987 -1.6930556439
H -2.2378250512 0.356363991 -2.1896532666
H -3.2541265821 -0.3336749507 -1.2742508101
O 0.8859180276 -2.4463243567 -1.5876887806
H 0.5603248633 -2.4617700266 -0.6593864914
H 0.7518918805 -3.3300826113 -1.9368700207
O 2.6323425186 -0.5674416733 1.5954193231
H 1.8057022303 -1.0962475367 1.6106065817
H 3.1320887725 -0.8315325856 2.3711179067
O 2.2750791854 1.4367818824 -2.0800548216
H 2.8347572049 1.8739211355 -2.724638412
H 2.7337142732 0.5997375174 -1.8189014983
O -0.2482814609 0.1118915396 -2.1680561132
H 0.5413962095 0.6487098966 -2.341368676
H 0.0710408349 -0.803936868 -2.1333506175
O -3.0103844345 -1.5819894709 0.3955308322
H -3.6981336758 -2.1393587216 0.7645194401
H -2.1646861672 -1.9737886466 0.6859187964
Cl -0.0633158781 -2.0724854843 1.3074145019
Rb -1.201382286 0.8862147516 0.5557499981
26

O -2.0757930132 1.93763334 1.4688960346
H -2.6560413552 1.1614730996 1.4582106374
H -2.2414109278 2.3918037355 0.6330365401
O -1.4837023002 -2.5035429975 1.1647840464
H -0.6321449345 -2.2722640609 1.5746260104
H -1.270156875 -2.7278268265 0.244801155
O -1.5289749347 2.5770524448 -1.344906887
H -1.774960464 1.6742051925 -1.6231753479
H -1.7231677075 3.1586678126 -2.0817926129
O -3.3540929921 -0.6075324209 1.0397827038
H -2.7076583887 -1.3383073086 1.2054096116
H -4.2198892189 -0.9397097657 1.284266005
O 3.2239529129 1.1602261194 -0.2836002284
H 3.1404113435 0.2344775634 -0.5790174089
H 4.1513277603 1.3850410728 -0.3709041582
O -0.7305779844 -2.5911879769 -1.615862785
H 0.2177396879 -2.3562563183 -1.4804844337
H -0.7387869674 -3.3037429121 -2.2587266971
O 1.0433507975 -1.5384427155 1.9759926564
H 1.5428244086 -1.7420004443 1.1532483264
H 1.574083685 -1.8672390071 2.7046584777
O -1.9871292004 -0.0888207851 -1.3760341524
H -2.6346895778 -0.2929691661 -0.6815853302
H -1.6303582579 -0.9438569017 -1.669058201
Cl 2.0824740734 -1.6803892787 -0.8840307773
Rb 0.4326877728 0.9649678162 0.3288661879
26

O 2.0896634723 -1.5380535789 0.9046588165
H 2.5556656596 -1.6510263678 1.7357982661
H 1.4025131713 -2.230329636 0.8850040875
O 2.8820892725 2.0970597282 -0.2585893582
H 3.1094244652 1.3045124599 -0.7911596651
H 3.5235369709 2.772242787 -0.4827783973
O -0.1190968275 -3.2351714175 0.8250230751
H -0.6782413917 -3.0416451213 0.0417583543
H -0.1440201617 -4.1854415294 0.9533893767
O -1.2473076727 1.8017265409 -2.07672608
H -1.9576407409 1.3647983539 -1.5580000942
H -1.675282229 2.4504483656 -2.6385985699
O 3.0668586798 -0.3212003978 -1.5070616995
H 2.9528342898 -0.900741554 -0.7395887471
H 2.2316161647 -0.4192170648 -1.9940177944
O -1.0111499756 -0.8268007058 2.3512230724
H -1.8133294077 -0.6128377386 1.8480730667
H -0.8119488267 -1.7374986623 2.1025419756
O 0.3651520157 -0.4828331574 -2.3036198648
H -0.1898851861 0.2851330927 -2.5160019722
H -0.2476308322 -1.2219266545 -2.1765534893
O -1.5896633058 -2.3656911524 -1.3150137593
H -2.2298137597 -2.8788460146 -1.8139588662
H -2.0935812078 -1.5968550449 -0.9366728016
Cl -2.8434883348 0.0926644776 -0.1156787382
Rb 0.353242718 0.9501901337 0.42917163
26

O 2.4283149867 -1.9398185458 0.9106151651
H 1.6445208862 -2.3281012213 0.4677160112
H 2.9184318145 -2.6630132569 1.3055739807
O 2.3897602141 2.2924049949 0.0802971789
H 2.7302639502 1.5794460282 -0.4939229764
H 2.9295526948 3.0661979408 -0.0849825803
O 0.2011427834 -2.3122701346 -0.5110588033
H -0.7516850171 -2.4618037009 -0.3637963834
H 0.31151852 -2.0164380624 -1.4293668624
O -1.0703994943 0.8136551401 -2.9888189409
H -1.5915839067 0.7823594698 -2.1554580319
H -0.9327919752 1.746389254 -3.166152524
O 2.8877754508 -0.0726345612 -1.1931537822
H 2.9778428486 -0.7953852156 -0.5532187823
H 2.309002447 -0.4062877847 -1.8979244992
O -1.8155234313 -0.6953158197 2.5539992262
H -2.3135984642 -0.13202134 1.9405240059
H -2.0472334357 -1.5830694737 2.2603929948
O 0.8537725345 -1.026737803 -2.9360540191
H 0.9362590142 -1.4343037204 -3.8005782243
H 0.1669697254 -0.3196521642 -3.0216568523
O -2.4935775452 -2.3294281331 0.0842296992
H -3.2205159379 -2.7996765979 -0.3293961973
H -2.6344293405 -1.3760888811 -0.1143658724
Cl -2.4753260801 0.7262971041 -0.2535995083
Rb 0.4715650077 0.3975944456 1.0375981547
26

O 0.8290187912 3.0011813294 -0.6087289506
H 1.1024860671 3.918989935 -0.5586145758
H 1.6433142514 2.4655394691 -0.7467676691
O 0.6967127766 -0.9103645301 -1.8329677195
H 1.0736899723 -1.5103972794 -1.1596137305
H -0.115644311 -1.3588376378 -2.116741742
O -2.534447377 0.6851769872 -1.2460919154
H -1.9906345997 1.1217267638 -1.9257679617
H -2.6627596312 -0.2106267688 -1.582544014
O -1.5499840814 -2.3170352616 0.8248964203
H -2.0064819321 -2.8792975501 1.4546142795
H -0.5888288257 -2.5192066711 0.9173425722
O 2.5220528629 0.2946434571 1.7562726961
H 2.3303110069 -0.6606604214 1.6162141463
H 3.1944169901 0.3411820661 2.4391619904
O 2.7392280826 1.1365430982 -0.9199740717
H 2.8802834454 0.771047607 -0.0287903825
H 2.3985137271 0.4115383296 -1.4581110918
O -0.4451331993 1.7144759017 -2.8413250908
H 0.1166281534 0.9311351544 -2.7946519639
H -0.0339870503 2.3455993964 -2.2309754698
O -1.9358654516 -2.1055717285 -1.8982908562
H -1.8933338412 -2.3506873562 -0.9527716411
H -2.2441920405 -2.8801309218 -2.3730548411
Cl 1.4717167443 -2.3725472896 0.8124427412
Rb -0.3414002088 0.5367330588 0.6453376796
26

O 1.9054854639 1.9835599367 0.3156022606
H 2.3574921661 1.1792205805 0.6159292662
H 2.103878844 2.0394369924 -0.6287141369
O 1.9260612119 -0.9927066456 -1.7683666634
H 2.2297581754 -1.0282230875 -0.8441129354
H 1.1212275571 -1.5372081653 -1.817865172
O -2.0444810766 -0.058867291 -1.4527743093
H -1.67414338 0.6004021165 -2.0535286579
H -1.618411539 -0.9018895818 -1.6739926932
O -0.8043427641 -3.4611698329 0.6221544092
H -0.3254189499 -4.2225014554 0.9559661345
H -0.5808133646 -2.7267867987 1.2392150955
O 2.6844383254 -0.7033663992 0.9287019422
H 1.8790503116 -0.8998579379 1.4707553736
H 3.4247184179 -1.0879952071 1.4027458638
O 1.8890635108 1.5255774286 -2.5547844262
H 2.5008616756 1.6475631549 -3.2829643227
H 1.9015468795 0.5564848823 -2.3285016751
O -0.6927947211 2.378601766 -2.1750813553
H 0.2282252899 2.164616104 -2.4275633619
H -0.9699140243 3.0925854183 -2.7522346018
O -0.5012777767 -2.4435198301 -1.8267716868
H -0.6042357364 -2.8948702242 -0.951632676
H -0.7115431403 -3.0970368961 -2.4969162058
Cl 0.0705052298 -1.1123272187 2.3917062307
Rb -0.8750906723 1.3771424412 0.7415346064
26

O 0.0231916453 2.9485892211 0.0467258591
H 0.3209752738 3.7867698067 -0.3121106665
H -0.8766624402 2.7848932614 -0.3138063938
O 0.69902333 1.9816625848 2.5410040879
H 0.435354308 2.4575729574 1.7292757769
H 0.9375554902 2.6436728465 3.192829791
O -2.6131373808 -0.086991143 0.5169256614
H -2.3447744086 -0.965936547 0.1792794581
H -2.2607931895 -0.0472000014 1.4296581392
O 3.12550215 0.1818794615 -1.208448989
H 2.9816396235 -0.0189251862 -0.2660854788
H 4.038969038 -0.0331438154 -1.4012579217
O 0.3018621929 -2.309912467 2.1157062043
H -0.1749246876 -2.5122542534 1.2688125995
H 0.4800108242 -3.1575376303 2.5287249876
O -2.1927058905 1.9264768623 -1.0563129514
H -3.0066318462 2.3034061103 -1.3945791483
H -2.4547537609 1.1766134789 -0.4445970059
O 1.91679016 -0.2266358055 1.2118715998
H 1.6839773685 0.5036075402 1.8037682935
H 1.5104819378 -1.0282089172 1.589611432
O -1.3171350873 -0.0916251842 2.9578231749
H -0.6639010398 0.6215918614 2.9674488718
H -0.8048208056 -0.9101186661 2.8563627154
Cl -1.1187266672 -2.6062270366 -0.5346977421
Rb 0.2489550285 0.0829180552 -1.3059079489
26

O -0.4644964216 -2.4626254083 2.3144873561
H -0.4339969838 -2.7079957053 1.3628455712
H -0.7587529511 -3.2487249317 2.7788037425
O 0.7864324491 1.9387442391 2.6818197253
H 1.2045106535 1.0628128013 2.8619816693
H 0.9696656521 2.4971260554 3.4395420587
O 1.0407960056 2.8653987519 -0.0001601537
H 0.1106042035 2.9396466214 -0.2640004516
H 1.0522758181 2.6759001266 0.9525977383
O 2.2445590471 1.211427634 -1.7735927568
H 1.9235974646 1.8923625729 -1.1409530025
H 2.9601867642 1.6027410827 -2.2778710038
O 1.6894883043 -0.5812381653 2.7752138242
H 1.0821002403 -1.3245738825 2.907094453
H 2.0429593912 -0.7264002954 1.8742105447
O -1.6044067903 2.3001054242 -0.9319159874
H -2.2522551969 2.8337475533 -1.395445103
H -1.2824215786 1.618745247 -1.5676111779
O 2.0981771548 -0.9084726479 0.1014705041
H 1.4879540888 -1.5556366401 -0.2992257874
H 2.3463555143 -0.2880890353 -0.5997952194
O -0.4212968768 0.2984235284 -2.2549478289
H 0.5242972223 0.4985135884 -2.3309771858
H -0.4829804956 -0.6458967019 -2.0127750002
Cl -0.4577641917 -2.4948463389 -0.7746216196
Rb -0.8526257559 0.1572191261 0.9481218124
29

O -1.4493855025 0.1113170147 1.4478946117
H -1.2259438092 -0.2490876434 0.5697838422
H -2.1308695405 0.7723899549 1.2504669025
O -3.5779568656 -0.8693113627 -1.0754955502
H -4.0928803176 -1.1205544174 -1.8463328636
H -2.6392446238 -0.9193485218 -1.3566272014
O 2.7185415083 -1.1193682845 -1.1636499291
H 1.8651616433 -1.1112036654 -1.6206835694
H 2.5339776041 -1.5619198546 -0.3183308961
O -0.3139335275 -3.2102904834 0.5725983795
H -0.3905172585 -2.7290439642 -0.2652798258
H -1.1942339426 -3.1028505135 0.9794498297
O -0.7328614354 2.4111808761 -0.8780906443
H -0.7110413266 1.6110296465 -1.4238051144
H -1.6568515119 2.467990773 -0.6021749417
O 3.8309592971 1.282272987 -0.4798291292
H 4.7023762382 1.5281320093 -0.7922122932
H 3.6197622561 0.4169195957 -0.8835343639
O -2.8501722927 -2.3875374608 1.5106717066
H -2.4704675798 -1.5361658322 1.7808779482
H -3.336571839 -2.1684148646 0.7060937492
O 1.7955311646 -1.8105463183 1.444088559
H 2.3071768597 -2.3288830518 2.0686215963
H 0.9932395197 -2.3551637651 1.2377623149
O -3.4429074789 1.6627178784 0.0866454282
H -3.658076433 0.8333270778 -0.3836062807
H -4.2784516939 2.0615848858 0.3376166541
Cl -0.5123096863 -0.7535739269 -1.5127399884
Rb 1.2903508369 1.0731327786 0.7929979903
29

O 2.0606147786 -1.7198119392 -1.0940379412
H 1.7232295913 -1.9700307479 -0.2130708601
H 1.2604251429 -1.6194248981 -1.634709926
O -1.5339825582 -3.1415352384 0.0051180286
H -1.8279053264 -3.9572078886 -0.4070304791
H -1.3276293299 -2.5228249724 -0.7317710053
O 2.7705412608 0.079362497 1.9198256857
H 3.3663666256 0.1516566298 1.1591963249
H 2.6347204125 -0.8649737383 2.0471553327
O 3.5626786609 0.4727037543 -0.7780772423
H 4.3539913478 0.5622261344 -1.3116611895
H 3.1379036212 -0.3788513293 -1.0333633192
O -0.7315581974 -0.126070189 2.3198019446
H -0.7728833451 0.0482665188 3.2620271942
H -1.6338883868 -0.422034665 2.0431653922
O -3.0309062518 -1.0808817024 1.32748143
H -3.3135234789 -0.5238307842 0.5852123812
H -2.700699646 -1.8977318828 0.9180174384
O -3.3226177106 0.5989921046 -1.0033144959
H -2.5935239365 0.1066012881 -1.450383787
H -4.0400386442 0.6456360633 -1.6396115268
O -1.7109596229 2.7110737512 -0.0927666437
H -2.1835585407 3.365784779 0.423917889
H -2.3882792422 2.0913585 -0.4190073545
O 0.8438809493 -2.2715027555 1.3860140378
H 0.1489330724 -2.8552429064 1.0453377782
H 0.3470304498 -1.5511468415 1.8147585671
Cl -0.8906088911 -0.9124594272 -2.0190779636
Rb 0.6804007393 1.0829758827 0.0433470835
29

O 0.5201128861 -0.1202727117 2.0628599395
H 0.0852389751 -0.9820058528 2.1681525236
H 1.4718227018 -0.2924139454 2.1465611978
O 3.2479002878 -0.6919728673 1.6833709297
H 4.0454367708 -0.6886750775 2.215703827
H 3.365922206 -0.0179341092 0.9701004601
O 1.8143544153 -2.5416426924 0.0365071987
H 0.9825732628 -2.7320289379 0.5053049278
H 2.3897910699 -2.1095541271 0.6871855157
O 1.1545631763 2.890994759 -0.2396980394
H 0.6050493745 2.8745427453 0.5847291601
H 1.3363153661 3.8131691542 -0.4302571984
O -0.5570587852 -2.6874349714 1.5792536906
H -1.3728961958 -2.3336116868 1.1407616527
H -0.844606399 -3.4340353754 2.1093235825
O 1.9141814895 -0.8828614533 -2.0564741821
H 2.2272108678 -1.2850108159 -2.8690085958
H 1.8909924838 -1.5995411201 -1.3752233498
O -0.4312120114 2.480167005 1.8635584405
H -1.3542011852 2.3479222716 1.5870479853
H -0.1423425769 1.611415982 2.1939163337
O -2.816536979 1.7273925025 0.58139167
H -3.0065614825 0.7608074861 0.5951578395
H -3.6702778693 2.163867752 0.557653358
O 3.2548482656 1.0035691621 -0.3852183565
H 2.6181115283 1.7355082501 -0.3072987016
H 2.9393432233 0.4513329963 -1.1185542384
Cl -2.8534751116 -1.3046132588 0.2017655417
Rb -0.4155039359 0.4041647437 -0.7981941475
29

O 1.1331146845 -0.4042100573 3.1561107239
H 0.5436447443 -1.1388077326 2.9278252088
H 1.9638153675 -0.5831450988 2.6903810761
O 3.3437581373 -0.8904557789 1.3799909948
H 4.234657334 -1.1679592712 1.6013929956
H 3.4213172081 -0.1791347016 0.6995665752
O 1.2197568393 -2.028842366 -0.0599427497
H 0.5135360865 -2.3140320809 0.5478308641
H 1.9836986953 -1.8163491698 0.5028022476
O 1.1923938344 2.7253559752 -0.2123113136
H 0.7356520565 2.46217216 0.6252583577
H 1.3202249055 3.6749064925 -0.1747068457
O -0.7164390526 -2.29818797 1.9194216341
H -1.4300389106 -1.643596546 1.7170433725
H -1.1589190519 -3.0624536581 2.2953297826
O 1.8834935515 -0.918415539 -2.426918093
H 2.2015154955 -1.4193970721 -3.1803109915
H 1.6910528708 -1.5602311051 -1.7145422176
O -0.1135520802 1.6486335998 1.8204225906
H -1.032044117 1.3301240121 1.7845200184
H 0.3583781241 0.9930497422 2.3775647825
O -2.9793893779 -0.5601705786 -1.8801671175
H -3.1761104976 -0.5122444236 -0.9235188969
H -3.7490855952 -0.9554017406 -2.291807793
O 3.2858581455 0.8870337036 -0.6296415347
H 2.6609942835 1.6224710874 -0.4987652316
H 2.9634221373 0.3877454992 -1.3945797175
Cl -2.6910210992 -0.1102368417 1.1690724282
Rb -0.4308085549 0.39939166 -1.085202165
29

O 0.3989132318 0.075598121 2.2047565178
H -0.269181576 -0.5647062062 2.5095469617
H 1.2591342321 -0.372040266 2.2166817809
O 2.8265321341 -1.1063004554 1.4851182446
H 3.6365231945 -1.3571886703 1.9332647635
H 3.0497272211 -0.359048271 0.8853037041
O 1.2811302784 -2.3038990317 -0.6554457009
H 0.3351721395 -2.4759590828 -0.4807437516
H 1.7262016749 -2.181180637 0.1950403598
O 1.3144088392 3.093586851 -0.2903853865
H 0.6669876889 3.1056432631 0.4491204422
H 1.5631259962 4.0044700485 -0.4576395919
O -1.8172440265 -1.5102486241 2.6541789626
H -1.871963215 -1.8918039608 1.7467134736
H -2.0732087744 -2.2065167108 3.2620964236
O 2.0507041116 -0.5191318591 -2.4970136525
H 2.3677670897 -0.8331769853 -3.3455288703
H 1.8396729324 -1.3128584659 -1.9537567682
O -0.5197586762 2.6024846845 1.6357974482
H -1.4275570041 2.352457105 1.4186526616
H -0.1475452059 1.8000229983 2.0500434521
O -2.7418828025 0.7031686765 0.9755343096
H -2.8440508478 -0.0738734593 0.4011672464
H -2.6727906525 0.2888764081 1.8458342404
O 3.1354953426 0.8903798187 -0.3156821556
H 2.6736881073 1.7426400802 -0.2628466421
H 2.9673786651 0.5339670251 -1.2033491346
Cl -1.8537116594 -2.1385404178 -0.33193423
Rb -0.1657926933 0.5092519538 -0.7602800604
29

O -2.3216799418 -0.269984599 -1.1362252334
H -1.9013406751 -1.0777719422 -1.4742718317
H -2.867859221 -0.5514840102 -0.3860386467
O -1.2877781253 -2.8976143246 1.1559915798
H -0.4842621325 -2.4510524013 1.47941609
H -1.1312087587 -3.0112428293 0.2050513079
O 2.8698156127 1.7091223073 -0.003760534
H 2.7778608904 1.1231676268 -0.7685561004
H 3.3872845382 1.1675628353 0.6058399186
O -2.1187486374 1.1815317574 2.2274885766
H -2.6320584251 0.3716928498 2.0571680539
H -2.389490734 1.4882447359 3.0940981176
O -1.7699903471 2.318525377 -1.8719849303
H -2.1715454896 1.433566977 -1.8252573104
H -2.2344273169 2.7993515709 -2.5578004615
O -0.7891356653 -2.599390623 -1.6720830033
H -0.8007248528 -3.2282044488 -2.3970989786
H 0.0973174262 -2.1737256872 -1.6955944374
O -3.310887228 -1.2001802899 1.369733138
H -2.5957934532 -1.891060116 1.3622804731
H -4.1210740454 -1.635955593 1.6403603517
O 0.9587500434 -1.2830423371 1.5156720109
H 1.7839621979 -1.3132471463 2.0118462033
H 1.2576725812 -1.3350360263 0.5844917524
O 3.8653391876 -0.9044233708 0.9969806264
H 3.4512951042 -1.1092385827 0.1388139876
H 4.7330999638 -1.3134455609 0.9741799344
Cl 1.8382857091 -1.0255368055 -1.449509802
Rb -0.051495196 1.327900787 0.2183819385
29

O -2.1115765006 -1.8915519838 0.7766541919
H -1.6142068058 -2.374565027 0.0995134606
H -1.5221788325 -1.7967019937 1.5440495455
O -0.348370321 -3.0729857262 -1.1737010956
H -0.5348462094 -3.7459306305 -1.8320931996
H -0.1696513514 -2.2386150947 -1.6775573259
O -1.4267514485 1.5828982749 2.6592774546
H -2.0367057581 1.4298774356 1.9041041024
H -1.8499981681 2.2200409125 3.2369736164
O -2.6385518963 0.763959319 0.4137885526
H -2.5929844136 -0.2150844006 0.416903208
H -2.6804451495 1.0493445023 -0.5115093871
O 2.1807855561 -0.9592283814 1.9052545384
H 3.0744792067 -1.010126904 2.2495383628
H 1.9774034281 -1.8499609411 1.5368424861
O -0.4875893826 -1.0831094207 2.9606858508
H -0.8331758046 -0.191637415 3.1271573875
H 0.474378663 -0.9976090872 2.9085487489
O -2.1097892238 1.5668723846 -2.2698666547
H -2.6778284245 1.6239920131 -3.0410574584
H -1.4360856309 0.8698173173 -2.4690886832
O -0.3142670495 3.3301839456 -1.0168090134
H -0.9788391521 2.8958829 -1.5806361228
H 0.1168896392 3.9771723782 -1.5779933936
O 1.3367573562 -3.3546846492 0.9875170766
H 0.8179999231 -3.3233784839 0.1581340002
H 0.7531006256 -3.7538202625 1.637980908
Cl 0.1769285548 -0.4023780095 -2.4730115708
Rb 0.4501480965 0.9062078008 0.3917533283
29

O 1.8292511263 -1.4045429154 -0.5803511209
H 1.496657494 -2.0035746185 0.1215551436
H 1.115000134 -1.3771001827 -1.2356445291
O -1.5437572438 -3.6002527976 -0.5039885694
H -1.5793388986 -4.4034587822 -1.0280105283
H -1.3668844273 -2.8732621618 -1.13199258
O 3.2046984665 2.1066303786 0.3668243669
H 3.8449654538 2.633984079 0.846715161
H 3.7076875223 1.3619096382 -0.0236406247
O 4.255434341 -0.1867037553 -0.6903267985
H 4.6808398053 -0.3034322774 -1.5414531238
H 3.4452014309 -0.7374107457 -0.7085466473
O -0.8648735362 -0.4869034948 2.3335722883
H -1.1248293031 -0.3225477352 3.2424174539
H -1.6876887861 -0.7081964815 1.8448148004
O -2.8654520431 -1.1644722583 0.6041717824
H -2.2972561056 -1.054561137 -0.1897266264
H -3.0418835618 -2.1121656365 0.6129088734
O -3.4267206732 1.2497691236 -1.0918673711
H -2.8179731121 0.7281403926 -1.6395491715
H -3.764732423 0.6084513167 -0.455622783
O -1.7100768468 3.00534351 0.1266585337
H -2.0045726026 3.915414578 0.0697411766
H -2.4064605267 2.4675972019 -0.3064946156
O 0.526303651 -2.8638469562 1.3493484503
H -0.1804055448 -3.2663049423 0.8184639646
H 0.0939400781 -2.1579617252 1.8520397611
Cl -1.0478049344 -0.8160316019 -1.8821303038
Rb 0.4915203484 1.1954411236 0.2616779728
29

O 2.722169345 -0.9226252217 -2.0534051074
H 3.145260456 -1.3964465616 -2.7726697853
H 1.8864438469 -1.3972576318 -1.8703350075
O -3.2465689652 -0.5975596632 0.9712643014
H -2.6007763543 -1.2415794356 1.2996743718
H -3.372273509 -0.8181528718 0.033661004
O 1.5787864579 1.6888011395 -1.736383959
H 1.9136938546 0.8651054163 -2.1216507579
H 0.7064861207 1.8157809897 -2.1318986052
O 3.8455756823 0.8730786054 -0.0851031124
H 3.3808490332 1.589380188 -0.5350173445
H 3.6567230749 0.1022216413 -0.6416649893
O 2.4224613041 0.7703652737 2.2534745097
H 3.0664478843 0.7735454468 1.5159159002
H 2.9350195131 0.7882582412 3.0626040504
O -3.1984581357 -1.2786943786 -1.7941300594
H -2.3112414923 -1.6833560782 -1.7921138602
H -3.7789635226 -1.9132996232 -2.2199193226
O -1.1406366325 0.9806526471 -2.0772155575
H -2.0825074742 0.9374736715 -2.2656821029
H -0.8541996732 0.0501431193 -2.0775962686
O -2.4313780156 1.8768462295 1.7535068695
H -2.9045642954 1.0570505938 1.5019690724
H -3.0813797543 2.4620879552 2.1436645736
O -0.8690566603 -2.0523340578 1.5717056868
H -0.5892135656 -2.2766902839 0.6621300734
H -0.6155457712 -2.793135582 2.1259005889
Cl -0.1435809415 -1.9644185816 -1.431361486
Rb -0.0082833095 0.7608114894 0.7564093552
29

O 0.5444557816 0.9798199721 3.3331451871
H 0.7311710851 0.6255140553 4.2053782675
H -0.250004519 0.5072915668 3.0053964505
O 3.6217702659 -1.5188538662 0.7444098331
H 4.5554157652 -1.38593937 0.5741140177
H 3.2234055235 -0.6328763224 0.839497609
O 1.6754992717 -2.69099002 -0.8472525272
H 0.9220949171 -2.8749536234 -0.2677722066
H 2.4149467646 -2.4048119963 -0.2804516093
O 0.7797227579 2.7838884036 -0.4308959683
H 0.1458414498 2.9629042012 0.3032751995
H 0.959448553 3.6281858356 -0.8483216467
O -0.8810687225 -2.6567249741 0.4124284253
H -1.2525907466 -1.9839023633 1.0156076784
H -1.5486202112 -3.3419415876 0.3419182543
O 1.1195014087 -1.4974720481 -3.2242193426
H 1.4136349389 -1.8917980614 -4.0458141358
H 1.4326905163 -2.0787953205 -2.5026463906
O -0.8751053224 2.9522287852 1.6978857125
H -1.4580518281 2.1758568217 1.6428987287
H -0.3329384155 2.7519620152 2.471792081
O -2.8715208925 0.7253097889 -1.055654335
H -2.8880217729 0.5153101451 -0.1055070733
H -3.739724865 1.0711252887 -1.2682352213
O 2.0881015516 0.7380861961 1.0051339041
H 1.6588443179 0.8116901951 1.876492725
H 1.9399076498 1.586438855 0.5612171958
Cl -1.9336451597 -0.0816498059 1.8280398354
Rb -0.0883208793 -0.0447825225 -1.0700720017
