31

Rb 0.5184412303 1.0752930835 -0.0232024387
O 3.3195005942 1.1816756506 0.5430726520
H 4.0795094561 1.7134536094 0.7859549213
H 3.6328974187 0.2690371422 0.4698869816
O 1.0070675418 -1.3018024822 1.8635418603
H 1.1362922545 -1.2010364593 2.8096210607
H 0.2172490467 -1.8686867933 1.7467684518
O -3.2663665866 -0.4691047849 0.9664030932
H -2.8715811577 0.3170659473 1.3723929707
H -2.7238371379 -1.2232230112 1.2368028619
O -1.9064320937 2.0176322974 1.4834007891
H -2.1596990237 2.3885751704 0.6202895794
H -2.2080912476 2.6332924218 2.1555684260
O -1.2778547431 -2.6026592473 1.0966876881
H -1.4832366792 -3.5388450152 1.1514179391
H -1.1469803341 -2.3795527866 0.1507437327
O 1.7692475210 -0.8682225660 -2.0855064068
H 2.3810210112 -1.2637869891 -1.4396499143
H 2.2455277376 -0.8134455929 -2.9166132274
O -0.8306674383 -1.3577076321 -1.2415421671
H -0.0678335045 -1.3928916354 -1.8382127717
H -1.6133859729 -1.0558911495 -1.7286956997
O -1.9815726403 2.3127806326 -1.2686729567
H -2.1842579084 3.0563171701 -1.8407202652
H -2.5333062589 1.5647078907 -1.5748980374
O -3.2728586902 -0.0819871358 -1.6794964309
H -4.0958718625 -0.2752607349 -2.1339730254
H -3.4132417284 -0.2717396847 -0.7189061498
O 3.1829109513 -1.6471261256 0.2098364489
H 3.7683330056 -2.3980758572 0.3319270997
H 2.4755539329 -1.7161493406 0.8809922660
31

Rb 1.9646506923 0.3536293939 -0.9091028327
O -0.7525384429 1.5756353947 -0.5986904821
H -1.3145480332 1.1897725874 0.1065990989
H -1.3998082678 1.8638297469 -1.2529705319
O -2.8236058508 -1.3457714408 -1.3762404531
H -1.9097303825 -1.3684926291 -1.6935160063
H -3.1340834768 -0.4326857014 -1.4752855643
O 0.0560798308 -1.7798415980 -1.5557132322
H 0.0327274383 -1.8772639371 -0.5860815992
H 0.2382533901 -2.6535755526 -1.9111150722
O -3.5990667476 1.4274547421 -1.1411281341
H -4.4125714476 1.8148191403 -1.4728547124
H -3.6397043782 1.4730211074 -0.1760440188
O 0.2401854233 0.8162405176 2.7016902825
H 0.6833432785 1.5527136323 2.2436895364
H 0.6104947755 0.7774653413 3.5869560811
O 2.7625336512 -1.8275986844 0.7267951635
H 1.9385871283 -2.1277387920 1.1370952952
H 3.4640031224 -2.3811092760 1.0748692175
O -2.4802997495 0.7815409563 1.4165036380
H -1.9862733628 1.0241688345 2.2076189629
H -2.6684483024 -0.1721757267 1.5033128229
O 0.0368615313 -1.6262963204 1.2679012517
H 0.1044593267 -0.8023300792 1.7832778686
H -0.8729622209 -1.9437947730 1.4110867993
O -2.7233658955 -1.9770066771 1.2091315920
H -3.3750675974 -2.5988866848 1.5398142372
H -2.8656182443 -1.8737765484 0.2350456653
O 1.2350501416 2.6750404884 0.8498645202
H 1.4293123128 3.5982724759 1.0272806669
H 0.4209047435 2.6414694399 0.3108637818
31

Rb -2.2482683111 -0.2054165581 -0.3045544549
O -1.4117240894 -2.2192594056 1.7662209742
H -1.7971444508 -2.8963364382 2.3269287220
H -0.5220847025 -2.5324605467 1.5272432888
O 0.4376979754 -0.7857083840 -1.3358963881
H 0.6882270960 -1.3282221359 -0.5690367918
H 0.6632894072 0.1372746564 -1.1031702018
O -0.3305997262 0.4315734312 1.9056507938
H 0.6331955590 0.3143039866 1.8525135506
H -0.6622905862 -0.3613884938 2.3460201389
O -1.5490353801 2.0460894843 -1.8867438284
H -1.8600815368 2.6686392777 -2.5461886367
H -0.5936876815 2.1914095910 -1.8017550720
O 3.6981400679 0.8081414381 -0.5745033441
H 3.6578558382 0.0328344489 -1.1761953953
H 4.5828593102 1.1744608428 -0.6424801880
O 1.2402122346 -2.4546799325 0.8669385437
H 1.8423929255 -1.8014414123 1.2719145556
H 1.7837381866 -3.1936414922 0.5809601408
O 1.0519908315 1.9052524928 -0.8572469403
H 2.0143956677 1.8519634790 -0.9415220601
H 0.8806952195 2.3779835955 -0.0180759167
O 2.4890954294 -0.1512119835 1.7199004584
H 2.9928456442 0.2500606190 0.9803036946
H 2.9904742438 0.0233616197 2.5203509543
O 0.4874201562 3.0575252943 1.5742766226
H 0.1816575245 3.9329072630 1.8188780539
H -0.0735351515 2.4134184259 2.0261003011
O 3.0944159680 -1.4074060211 -2.0201373839
H 3.3976513345 -1.6905762372 -2.8854234365
H 2.1298515098 -1.2947998321 -2.0777496156
31

Rb -1.2080551149 -2.0283883537 -0.4062066679
O -2.7513533090 3.3003366073 0.4385936770
H -3.3649732451 3.9650646048 0.7565127930
H -3.1739547673 2.4329158130 0.5419994346
O 0.7724540017 1.3966693381 -1.4920019771
H 0.5950324235 2.0554982790 -0.7928953199
H 1.6233064774 1.6087473310 -1.8940647353
O 3.3822509205 1.5668661766 0.8685647925
H 4.0956937821 2.1040671229 1.2209802512
H 3.6336598166 1.3397852295 -0.0438193382
O -0.1070315299 2.8337427920 0.6831473352
H 0.4064675096 3.4639721079 1.1930843045
H -1.0316929112 3.1663524340 0.6380836407
O 3.5681615937 0.6174060722 -1.7863670393
H 4.3126104605 0.5153102149 -2.3839623832
H 3.1779677369 -0.2621058141 -1.6596857406
O -3.0073820104 0.4808756203 0.3999148016
H -2.2819054319 0.4124375149 1.0361845565
H -2.5826957520 0.5891286077 -0.4665962851
O 1.6200775863 -1.2015111652 -0.7475802121
H 1.2482092746 -0.3047029669 -0.8431147007
H 1.9434542574 -1.2276727343 0.1682680903
O -0.3525513109 0.1270262640 1.4178915776
H -0.1859780381 1.0750099988 1.2650476271
H 0.4328147665 -0.1867575921 1.8918657507
O 2.3003971416 -0.6893228514 1.9833264907
H 2.7967790827 -1.1377337889 2.6712661857
H 2.7991972360 0.1193061750 1.7433904679
O -1.6150223240 0.2664339898 -2.1271811551
H -2.0958421741 0.5451006187 -2.9099911224
H -0.7785835588 0.7728367124 -2.1184952163
