31

K -1.0856470731 -1.9402450441 -0.2507591694
O 3.3566486082 -0.7728260093 0.1874389060
H 4.2900629658 -0.9950560812 0.2347547483
H 3.1919227209 -0.1217077059 0.9015058554
O -2.7547883207 1.4320875001 1.1944796163
H -1.9078991444 1.0425653548 1.4918394676
H -3.1194162177 1.9141855627 1.9409563746
O -0.2887480986 0.2149249956 1.3700617673
H 0.1958613951 0.8434581401 0.7946157381
H 0.2845959554 0.1136535931 2.1370954307
O -3.5635040670 -1.1996979955 0.4437992620
H -4.4751758931 -1.4946547250 0.4117854641
H -3.5827994958 -0.2671237505 0.7059509361
O 2.2728842349 0.6089669503 -2.0198323948
H 2.7759445015 0.0526599911 -1.3978390879
H 2.8551630666 0.8045800989 -2.7577225433
O 2.5659747339 1.1477684399 2.0064284071
H 2.1757175005 1.8436428054 1.4527588674
H 3.1006471380 1.5852576345 2.6731288985
O -0.5740533494 0.0116985207 -1.9722015965
H 0.3504672959 0.1731583702 -2.2046448635
H -0.9802854216 0.8860324447 -1.8927157003
O 1.0556318327 2.1950531547 -0.0650057655
H 1.5070364704 1.8353214511 -0.8483945711
H 0.2633660404 2.6480794130 -0.3950571256
O -1.5641987349 2.6199599503 -1.0623020605
H -2.0238298254 3.3106066101 -1.5453841107
H -2.1430158711 2.3547056014 -0.3249501484
O 1.3875458950 -2.8522583485 0.2648675902
H 1.7670034091 -3.7147058901 0.4445526661
H 2.1311446401 -2.2277836393 0.2783630409
31

K -0.5360876263 -1.4814510681 -0.6963738003
O 3.6484459032 -0.8901068223 0.3974726140
H 4.5844934678 -1.0993715840 0.3630051387
H 3.5465625046 -0.1126717240 0.9869001146
O -2.8616115429 1.2541235034 1.2384529423
H -2.0248906644 0.9085016001 1.6110291925
H -3.3843176909 1.5852726559 1.9728315639
O -0.3732491792 0.2102963287 1.5796816925
H 0.2143467067 0.8694382643 1.1548977666
H 0.1261105190 -0.1781884915 2.3028603262
O -3.1379381654 -1.3630795731 0.0397872252
H -3.3305314219 -0.4974392164 0.4291814997
H -3.9699835376 -1.8388502100 0.0145353138
O 1.8289855687 -0.1914175031 -1.5636197283
H 2.6341865012 -0.4657495222 -1.0873791883
H 2.0609920069 -0.0862604348 -2.4891515074
O 2.9183221262 1.2950100388 1.8589502933
H 2.3820998748 1.8611829259 1.2818106884
H 3.4363418393 1.8758446688 2.4203237730
O -1.1722128118 0.5550924736 -2.4435217466
H -1.7085952223 0.4924233452 -3.2364206596
H -1.4312316252 1.3867405278 -2.0148033845
O 0.9791444112 1.9726597118 -0.0171018658
H 0.2225269018 2.4924915798 -0.3308293525
H 1.2440813164 1.3806230198 -0.7445164158
O -1.6498890476 2.7895642305 -0.7624535570
H -2.0232675455 3.6438293065 -0.9922806349
H -2.2094944649 2.4119702928 -0.0570997223
O 1.4285061561 -2.6094881374 0.8051251062
H 1.5662886943 -3.4083109434 1.3177697989
H 2.2922078825 -2.1688522967 0.7553778711
31

K -1.0464324344 -1.9183349720 -0.6173057772
O 2.4512599245 -1.0230227208 1.9050650197
H 2.8556970107 -1.4876218458 2.6411122095
H 2.8385146556 -0.1196100217 1.8878428859
O -2.5225680947 1.2740150262 1.4273427497
H -1.6697355530 0.8361927957 1.6251362509
H -2.8204613908 1.6917574778 2.2391963095
O -0.1381789190 -0.0305358194 1.2188513681
H 0.3269846700 0.6568083410 0.6958776277
H 0.5447028322 -0.3871879089 1.8053316675
O -3.4209864066 -1.1975984563 0.3464662595
H -4.3489745816 -1.4335767553 0.2972567990
H -3.3820172623 -0.3201499531 0.7583012508
O 1.9404346798 0.2553627388 -2.3049124497
H 2.0685805788 -0.5677645300 -1.8001615670
H 2.6751519396 0.3353782996 -2.9173758951
O 3.0672342916 1.5837953985 1.6869266636
H 2.4779954815 2.0071415767 1.0424778064
H 3.8166933284 2.1649489689 1.8256258119
O -0.9411059245 0.1368256065 -2.2758848017
H -0.0500278021 0.3073438084 -2.6063769763
H -1.2887695487 0.9967909897 -1.9999367124
O 1.1112974116 1.9659854795 -0.2496273089
H 1.4539719149 1.5382266374 -1.0539436156
H 0.3168575422 2.4600590877 -0.5095354826
O -1.5800792402 2.6115449465 -0.8751574328
H -2.0380676720 3.3929851877 -1.1935473496
H -2.0548423405 2.3074332342 -0.0804397040
O 1.8420121799 -2.0173949233 -0.6048143596
H 2.4025599576 -2.7621874437 -0.8378787688
H 2.1405202825 -1.7276994695 0.2833373701
31

K -0.9566379430 -1.6827630273 -0.6240520337
O 2.3208228677 -1.0375240362 2.1096269247
H 2.7240672443 -1.4048730657 2.8993425808
H 2.8460800630 -0.2412937773 1.8506255558
O -2.5916205999 1.2446171782 1.5424016202
H -1.6962401078 0.8827003996 1.7146566714
H -2.8774202144 1.6863326575 2.3458557657
O -0.1371963190 0.1297445445 1.2982073876
H 0.3060672785 0.8453017180 0.7845204986
H 0.5472944280 -0.2449474443 1.8729403876
O -3.3219384960 -1.3072747668 0.5419977300
H -4.1899703476 -1.6962816015 0.6616380701
H -3.3482143496 -0.4360410900 0.9680098819
O 2.6722075081 0.2495687288 -1.5585078272
H 2.4441781068 -0.6661427766 -1.3243630951
H 3.1822910570 0.2170976529 -2.3710546834
O 3.5112740819 1.1052640831 1.0465833619
H 3.4155781604 0.9423040940 0.0953417214
H 3.1038597902 1.9631050581 1.1964079120
O -1.2851355867 0.2896149172 -2.3938344290
H -1.4483994284 0.3499014119 -3.3368757547
H -1.6190942799 1.1181099964 -2.0082838029
O 0.8658520123 2.0672113154 -0.2960263874
H 1.3060574455 1.6106497794 -1.0271517172
H 0.0562790183 2.4638026195 -0.6489138238
O -1.9259310474 2.5489282432 -0.8545892048
H -2.4182606698 3.3361218746 -1.0986992686
H -2.2961500626 2.2318419870 -0.0091641043
O 1.8035377584 -2.1840583844 -0.3323198091
H 2.2996381420 -2.9875620192 -0.5092543747
H 2.0497726494 -1.9118762326 0.5785304065
31

K -0.3434538843 0.9442262459 0.5723917549
O 2.0582516885 2.1580951003 1.0182215370
H 2.4151623662 3.0478479508 1.0442031937
H 2.7251394996 1.6089213694 0.5828936852
O 1.5089574297 -0.9745692769 1.8590116417
H 1.7503585983 -0.8359386879 2.7782271497
H 1.0219773011 -1.8179689968 1.8175892138
O -2.2242559332 -1.0911954415 1.5971894720
H -2.7974598013 -1.0595399384 2.3669436922
H -1.6756703110 -1.8906465758 1.6860674285
O -2.6698771260 1.9558754256 -0.3616787751
H -3.0114013988 1.1801842549 -0.8300858999
H -3.3772717817 2.6027348104 -0.3509783840
O -0.2459948358 -3.0326839597 1.2597412731
H -0.2104955264 -3.9913761859 1.2844694205
H -0.2138611974 -2.7482875145 0.3191524026
O 2.0177760347 -0.7287659363 -2.4195660255
H 2.6446595431 -0.5844374259 -1.6862644633
H 2.5053569296 -1.1407036898 -3.1361499092
O -0.2353327619 -1.5880515155 -0.9741119320
H 0.4684168314 -1.4090135637 -1.6204447022
H -1.0832304681 -1.3482952773 -1.3778858098
O 0.0930596473 1.3210063597 -2.0820645295
H 0.8266111317 0.8595448669 -2.5097082459
H -0.1628518911 2.0425483207 -2.6592058381
O -2.9681992796 -0.7899905761 -1.0809659380
H -3.6982168769 -1.2567623601 -1.4947902282
H -2.9713024886 -1.0301554310 -0.1375772710
O 3.3658473761 -0.2036726275 -0.0305360858
H 4.2802809345 -0.4442806819 0.1375023973
H 2.8282927182 -0.6260304016 0.6689860066
31

K 3.0541501742 0.6808800218 0.6906667153
O 0.7865167321 -2.7935804305 0.5827466268
H 0.5418954830 -3.3792481834 1.3040833627
H 0.6018724888 -1.8761372757 0.8820021073
O -0.2842361894 0.3002143556 -1.6445637060
H -0.4999219180 -0.6213505673 -1.8648069304
H -1.1187558125 0.8006837955 -1.7308862987
O -3.0341802854 -0.9429676957 0.0159691815
H -2.4960716804 -1.5785549675 -0.4772382436
H -3.1826726318 -0.2036856621 -0.5929617654
O -1.0253317769 -2.4254327997 -1.5297261798
H -0.3796208676 -2.7844139680 -0.8951818909
H -1.1799411896 -3.1027623030 -2.1923165425
O -2.7652131863 1.5083317360 -1.4712889172
H -3.3011116953 1.9710636014 -2.1187734963
H -2.6753967552 2.0923795387 -0.6874532390
O 3.4733745438 -1.9195174802 0.4003772678
H 2.6605429722 -2.4506363398 0.3995798835
H 4.1792764201 -2.5027924945 0.1156375329
O -2.2269933210 2.7095085638 0.8936438493
H -2.6363382863 3.4667994417 1.3171197090
H -2.2442524004 1.9807593125 1.5373665672
O 0.4557553378 -0.0981992682 0.9919409103
H 0.1132305568 0.1201920241 0.0979797202
H -0.2912569844 0.0770190656 1.5935546166
O -2.0348960921 0.2320201526 2.2006900818
H -2.4229357249 -0.0395658423 3.0352746829
H -2.4750188129 -0.2907589425 1.4854642089
O 2.2535938944 1.3972960395 -1.7048734987
H 2.5680659499 1.8237632162 -2.5036199382
H 1.3545384522 1.0760974961 -1.8981276986
31

K -0.2156550826 -0.7959655371 0.3881553842
O 2.4942076170 -1.2365695465 1.4193412932
H 2.9155763314 -1.7701206301 2.0969738890
H 2.6461387514 -0.3058201554 1.6669784348
O -2.2443562788 1.3357499649 0.9862181941
H -1.8194377563 1.2362697348 1.8486828197
H -2.8159880736 0.5708098987 0.8397100419
O -0.2328602608 0.5806702209 2.8826161739
H 0.6182042800 1.0382240751 2.7696584275
H -0.3244501515 0.4083767555 3.8224046675
O -2.9023441078 -1.2091176249 -0.2153495915
H -3.6670119213 -1.7848525421 -0.2832201774
H -2.6692578168 -0.9376775112 -1.1179714148
O 1.5343240394 0.0681854533 -2.8690443802
H 1.8329415286 -0.7566486901 -2.4477812361
H 2.0661575772 0.1947721444 -3.6581282365
O 2.2648392922 1.4913956858 1.9014652594
H 1.9849812387 1.7220157252 0.9885803765
H 2.8853166434 2.1637418526 2.1924629790
O -1.3119601735 0.0408907540 -2.1179787596
H -0.5542122523 -0.0643728371 -2.7078776271
H -1.4312290806 0.9997223571 -2.0285344730
O 1.1352384826 1.5784549453 -0.5228398942
H 1.4562045579 1.2408508647 -1.3758339563
H 0.3860870231 2.1620086256 -0.7400822635
O -1.3286574701 2.7192249778 -1.1411442944
H -1.6708766563 3.5791311246 -1.3939988890
H -1.7956015033 2.4343364104 -0.3309708316
O 1.8786645330 -2.0791156429 -1.1401025955
H 2.1003115070 -2.9742736609 -1.4076365637
H 2.3875937109 -1.8915102412 -0.3319835420
31

K 2.5647513467 1.4766773024 0.6356674269
O 0.4327021872 -0.1523216034 1.0740281896
H -0.0263863918 -0.0830586457 0.2108593374
H -0.2868524862 -0.0992589951 1.7339542538
O -2.1518155394 2.2549007140 0.5715568156
H -1.2488705225 2.4790551165 0.3186839940
H -2.0904745902 1.6713761150 1.3440078927
O 0.6053467193 2.4473279160 -0.9593756514
H 0.2541741099 1.6559194770 -1.4104632400
H 0.5466183094 3.1685662771 -1.5906841064
O -1.9532817976 0.0163426736 2.3828907854
H -2.3231793170 -0.1200267904 3.2576315989
H -2.3484344779 -0.6578692570 1.7803121329
O -0.5849234447 -2.7625838566 -1.2855372105
H 0.1936613869 -2.9595113867 -0.7367047975
H -0.7045520074 -3.5060749195 -1.8813055489
O 3.5545829447 -0.8014246988 -0.2599157203
H 4.3181484112 -1.1048575838 -0.7547729025
H 3.0208444240 -1.5912202770 -0.0696357800
O -2.7901570564 -1.6117916707 0.4148475173
H -2.1489145880 -2.1416466216 -0.0781223515
H -3.1728802571 -0.9990519569 -0.2312868847
O -0.5616205364 0.0371569810 -1.5488218799
H -0.4518725654 -0.9005901975 -1.7752437294
H -1.5198177183 0.2157372820 -1.6275503170
O -3.2358112927 0.6378742355 -1.3015502359
H -3.9351403524 0.9532269625 -1.8776882749
H -3.0243779450 1.3506327377 -0.6589802520
O 1.5404426598 -2.6070174840 0.5543891379
H 1.6687410273 -3.2494726110 1.2570527511
H 1.1055598004 -1.8231486553 0.9515399443
31

K 2.7864997245 1.0730073852 0.6580504746
O 0.6049430432 -4.8856683252 0.2792910949
H 1.3253022547 -5.5137395438 0.3651492511
H -0.1783053874 -5.4068151018 0.0878996421
O -0.0290985140 1.3091783464 -1.2435915261
H 0.5499539946 0.7375242230 -1.7660836473
H -0.9365810943 1.2280303935 -1.5974511325
O -2.3076615451 -1.5929912535 -0.4023072228
H -1.4188169308 -1.8872681847 -0.6495389522
H -2.5449903280 -0.8938797365 -1.0299421403
O 0.5457859548 -2.2064936460 -0.4470224084
H 0.5046187302 -1.6704017540 0.3626715572
H 0.6521071374 -3.1392563765 -0.1862474414
O -2.7034938172 0.9307377448 -1.7431613538
H -3.2787660541 1.1870574238 -2.4669855506
H -3.0323853001 1.3737033297 -0.9299059170
O 2.2397490642 -0.4335276027 -1.5876519153
H 1.7296035484 -1.2308796047 -1.3246612034
H 2.7167801987 -0.6593049444 -2.3891726951
O -3.1496844244 1.9103411296 0.7246288912
H -3.8500581753 2.4464446534 1.1012046405
H -2.9825084243 1.1796420884 1.3456022964
O 0.3637918341 0.0640505054 1.2212636403
H 0.0168274767 0.5263222171 0.4326353112
H -0.4092100577 -0.0487425263 1.7987819642
O -2.2922084306 -0.4192952361 2.0236179345
H -2.7328039635 -0.8919342106 2.7330302453
H -2.3770418525 -0.9669384047 1.2065794707
O 1.7313619749 3.2492789900 -0.3392274358
H 1.6899853104 4.2030414638 -0.4208404968
H 0.9422661928 2.8888429034 -0.7756650861
