31

Cl -0.8044765685 -1.2584710752 -2.1388152049
O -2.0994330829 1.3385225260 0.9243597132
H -1.7588590326 0.4248323293 0.8979786968
H -2.2500325322 1.5608506145 -0.0109666079
O -1.9379581055 1.7409757847 -1.8987063235
H -1.7828112501 0.8047164999 -2.1195894640
H -1.0495964517 2.1116974006 -1.8864645369
O 1.1088502718 1.0057547400 -1.0273752322
H 0.4099309602 0.3540488776 -1.2408525810
H 1.7847612353 0.7831212147 -1.6913527740
O -1.7455306175 -0.0400404423 3.5498172520
H -2.1551398432 0.6955927234 3.0800037234
H -1.6646217906 -0.7148057460 2.8597382805
O 0.3831536179 2.6512128529 1.2926766541
H 0.7993707540 2.2871303812 0.4988169983
H -0.5301976677 2.3144571905 1.2295593247
O -1.0727761242 -1.3239700107 1.0338747013
H -1.2078812518 -1.5278214275 0.0921012646
H -0.1045960275 -1.2187213045 1.1121937400
O 1.6821309457 -0.7227675525 1.2036242094
H 1.6284714396 -0.0208188552 0.5328466330
H 1.6106114651 -0.2601418227 2.0635902005
O 2.4236971129 -0.4812578600 -3.0470897394
H 1.5138828834 -0.6396786567 -3.3306102968
H 2.5603104000 -1.2001652072 -2.4040453148
O 2.0475947552 -2.5105413387 -1.0697173543
H 2.0967024073 -2.1289948725 -0.1823526854
H 1.1213759868 -2.3828757847 -1.3311683328
O 1.0485705669 0.8560555170 3.4087576877
H 0.1532899458 0.5461341910 3.6216122124
H 0.8989114586 1.5963774170 2.7921823970
31

Cl 0.8127418047 1.9004097625 0.8243541375
O -0.2121118720 0.7341723205 -1.9245822304
H -0.0191727081 1.1860185044 -1.0781614001
H -1.1754568651 0.7724623647 -2.0223704061
O 3.1063974844 -0.4372962917 1.7941842855
H 2.2830120808 -0.8990587735 2.0167604969
H 2.7811591032 0.4478104678 1.5767020361
O 2.6431611745 1.2511443791 -1.8845817444
H 1.8125310439 1.1166029648 -2.3578197711
H 2.3386983315 1.5988931607 -1.0311995519
O -2.4575669709 1.3768112968 0.9435565489
H -2.5110201080 0.5226355051 1.4227559934
H -1.5283010408 1.6543760019 1.0039594436
O 3.1850764388 -1.4208986352 -0.9229796728
H 3.2951932460 -1.1904191809 0.0158065863
H 3.1288847111 -0.5513760100 -1.3555319888
O -2.5287310912 -1.2098502213 1.9825935676
H -1.5679494021 -1.2652518314 2.1292504842
H -2.6437157501 -1.6694527827 1.1326222226
O -2.5008214705 -2.2198577625 -0.7228624437
H -2.7198748085 -1.3702696654 -1.1328714581
H -1.5485744688 -2.3261491384 -0.8622767887
O 0.4066494026 -1.8404078639 -0.9630615568
H 1.3823714166 -1.8949379022 -1.0032050331
H 0.2079043179 -0.9688127526 -1.3569143121
O 0.2967223805 -1.0896283731 1.7742115847
H 0.3641334830 -0.1289880998 1.6123349116
H 0.3066031195 -1.4548359299 0.8673213786
O -3.0129145494 0.5607430202 -1.5224649930
H -3.7995288493 0.9888038914 -1.8612240034
H -2.8623172103 0.9233478072 -0.6078471227
31

Cl 2.7085186187 -1.3809496273 0.9005742323
O 3.1722029323 0.8073878085 -1.2147307516
H 4.0120983765 1.2456667387 -1.0704214709
H 3.0871262713 0.1574495406 -0.4769849999
O -3.3660125655 -0.8229994637 1.1575898785
H -2.6020987053 -1.4120939167 1.1832640252
H -3.0566789867 -0.0203718247 1.6217195453
O -2.2619054611 1.5628941528 2.2038417771
H -2.2778695287 2.0689948467 1.3679272291
H -1.3238377806 1.3830744025 2.3498459479
O -2.2201830892 2.7174496064 -0.3796758447
H -2.6347204092 1.9584113841 -0.8344907311
H -1.2882191491 2.6567903334 -0.6278637543
O 0.5773619334 0.9136419377 1.7618850385
H 0.5435323571 1.2798011745 0.8574919825
H 1.3648836931 0.3435963962 1.7521588277
O -0.5588150838 -0.8474068936 -1.6643984297
H -0.6112347938 -1.1963554873 -0.7533245994
H 0.2548391070 -1.2430112459 -2.0274421475
O 0.4565068880 1.6735069592 -0.9684926598
H 0.0752478099 0.8290218629 -1.2851965047
H 1.4057252835 1.5985080883 -1.1524256406
O -3.2383588857 0.3018135706 -1.4533157637
H -2.4378790017 -0.1202581785 -1.7940858591
H -3.3929379602 -0.1436038658 -0.5986827672
O -0.5203034230 -1.6233704278 1.0518985674
H 0.3772240720 -1.9923651435 1.0606284740
H -0.3597349968 -0.7212158823 1.3844314308
O 2.0561858810 -1.7753934215 -2.2370091699
H 2.5183306878 -0.9455554656 -2.4037524011
H 2.2538603333 -1.9305347015 -1.2955626317
31

Cl -2.6395608585 1.2204276041 -0.5664549770
O -0.1328099706 -1.2623587381 1.7161336138
H -0.3507729996 -0.3205549447 1.8124485719
H 0.0307639847 -1.3870611308 0.7583773139
O 0.4120444570 1.2455709791 -1.4288298263
H 0.8104270824 1.4891355079 -0.5747333447
H -0.5478197574 1.3809229388 -1.3147685296
O 3.2901573759 1.2330081978 -1.6560416619
H 2.4207155027 1.2688438198 -2.0751939550
H 3.1227080962 1.6314484126 -0.7923750375
O -0.8556048685 1.5474646616 1.8845650170
H -1.4627805552 1.5233884174 1.1040040497
H -1.4062182773 1.8055451640 2.6257659067
O -3.0104507858 -1.5915808515 1.1470733594
H -3.0632592511 -0.6918006381 0.7855514534
H -2.1066078791 -1.6459284547 1.4932515069
O -2.3553504607 -1.8942956166 -1.6546599102
H -2.6586944918 -2.1113625143 -0.7577548807
H -2.5061043476 -0.9359880791 -1.6764832992
O 2.7167741098 -0.7145033158 1.8766987931
H 1.8235399670 -1.0723470295 2.0042061662
H 3.0019271686 -1.0872343437 1.0201351960
O 0.3574983069 -1.5174678168 -1.0425122726
H 0.3867577481 -0.5636045150 -1.2591238645
H -0.5192485762 -1.8088318900 -1.3609158839
O 3.2284252460 -1.5551907696 -0.7780650256
H 3.3609035418 -0.6721154079 -1.1602533445
H 2.3061950320 -1.7713165502 -0.9858084700
O 1.8775776314 1.7863677095 0.9929836442
H 1.0476122399 1.9455452276 1.4641511471
H 2.2125012086 0.9381642863 1.3574617341
31

Cl 2.6192152360 0.2088778126 1.4240645061
O -0.0695768496 -1.7886752335 -1.0803237547
H -0.0591239927 -0.8459086695 -1.3419228379
H 0.8644508834 -2.0498024748 -1.1035784645
O 0.0441136375 -1.7840194667 1.8271924594
H 0.8423699947 -1.2436718909 1.9434534089
H -0.0372534623 -1.8508197619 0.8598611456
O 0.0299835263 0.9582037558 -1.7108358461
H 0.9794156971 1.0323971362 -1.9137187565
H -0.0436734682 1.2617164887 -0.7812088512
O -2.3451354393 -0.2926055941 1.6611278450
H -2.6425065275 -0.7469980387 0.8466021835
H -1.6159951561 -0.8506335442 1.9861595390
O 2.8750177854 0.8692193239 -1.7346005416
H 3.0444836959 -0.0691728787 -1.8790119871
H 2.9130571058 0.9320080894 -0.7630903139
O -2.9903260355 2.3804279024 0.6812383090
H -2.0741592968 2.6722706227 0.7616024292
H -2.9859019587 1.5488689549 1.1798695897
O -0.2114745988 1.5808499619 0.9701845069
H -0.8350688864 0.8849109658 1.2396805836
H 0.6705077331 1.2654265568 1.2458447802
O -2.8414173750 1.1413098642 -1.9499154957
H -2.9722107110 1.6507737981 -1.1319235928
H -1.8885393379 1.1924657900 -2.1168056477
O -2.9775057801 -1.4573217572 -0.8204382192
H -2.1107148546 -1.8380659169 -1.0153698492
H -2.9933776632 -0.6185045776 -1.3206814318
O 2.7657153220 -1.9685336762 -0.7491440699
H 3.2635754841 -2.7262957689 -0.4387940013
H 2.7445433161 -1.3407529971 0.0117993813
31

Cl 1.3754256443 1.9342620244 1.4049257521
O -0.7725498675 0.7296876174 -1.8211374302
H 0.0900280172 1.1462193712 -1.9695665474
H -1.1172925517 1.1275418104 -0.9849139334
O 3.2105144970 -0.7683267716 1.6529194240
H 2.3847635226 -1.1894896222 1.9341306920
H 2.9577131945 0.1692259895 1.6502366972
O 1.9424310247 1.5527621808 -1.5631095398
H 1.7798965725 1.6931137324 -0.5959157334
H 2.4290234556 2.3284173234 -1.8469740453
O -1.7705561734 1.6841489828 0.5091744950
H -2.1003347780 0.8845473503 0.9681025732
H -0.9291356649 1.9021493175 0.9432695383
O 2.8973803491 -1.1973361572 -1.1533304419
H 3.1307680117 -1.1174053282 -0.2095948601
H 2.7247342923 -0.2839885544 -1.4251422770
O -2.5532483148 -0.7571690541 1.6616256049
H -1.6543498269 -0.9606653444 1.9700032772
H -2.6883458054 -1.3686959097 0.9155074140
O -2.6681213161 -2.4109082514 -0.6952406605
H -2.9366494135 -1.7707693259 -1.3737794510
H -1.7087236809 -2.4846763119 -0.8028513547
O 0.1517292117 -1.7501488018 -0.8396711044
H 1.1099726815 -1.7500173688 -1.0280151293
H -0.1673733445 -0.9050735985 -1.2115320887
O 0.2978818269 -1.0696377968 1.9061641544
H 0.5169518165 -0.1213329752 1.8504204414
H 0.2445151850 -1.3490749519 0.9708853624
O -3.3301116697 -0.1792944913 -2.4609163888
H -2.4167381613 0.1563264017 -2.4826924214
H -3.7739593619 0.4035188095 -1.8398638287
31

Cl 0.0347993167 2.3385603446 0.6312449944
O 0.5140687305 0.7558201472 -2.1429356590
H 0.2776068447 1.2904482879 -1.3644490758
H -0.3428768745 0.4458141701 -2.4956643333
O 2.9495921422 -1.0371741343 0.8822948540
H 3.0624339833 -0.1430337025 0.5076699166
H 2.3372215808 -0.9169880963 1.6186383271
O 2.9405532525 1.4833278586 -0.4190339949
H 2.6064106265 1.2734667360 -1.2982860482
H 2.1717737753 1.8982491861 0.0117065720
O -2.0158632258 1.1888695327 3.0089504917
H -2.4607621308 0.7586073913 2.2652792046
H -1.4904058956 1.8676179604 2.5616168304
O 1.2885177037 -1.7776759134 -1.2723003683
H 1.9678299383 -1.6770903184 -0.5787083663
H 1.1053063247 -0.8679699558 -1.5867559509
O 0.5373846504 -0.1647638000 2.5170360409
H -0.2144371222 0.0567458660 3.0853966371
H 0.5340717304 0.5860937372 1.8899583820
O -1.1143748631 -3.1142688593 -2.0959041825
H -0.1861703670 -2.8654334505 -1.9590090623
H -1.4544353757 -3.1945753453 -1.1987224694
O -0.7229374180 -1.9532097216 0.7079229179
H -0.3083605689 -1.4957033167 1.4607917052
H -0.0378139437 -1.9039055143 0.0148558230
O -2.3923043136 0.2367831125 0.1472065673
H -1.8660301160 -0.5669999036 0.3313571032
H -1.7342614055 0.9535558160 0.1750233669
O -2.0108216723 -0.3890493040 -2.6785737340
H -2.3392197924 -0.1439773284 -1.7971677698
H -1.7974556699 -1.3332943020 -2.6004192689
31

Cl -1.7431508657 1.8559851612 0.7232982977
O 1.7732451373 -3.0177543266 -1.1102295387
H 1.4704711946 -3.3558603347 -0.2514293569
H 0.9933467749 -2.5704709442 -1.4778453192
O -0.8005801014 2.9848817884 -2.5277314767
H -1.0894873497 3.3291706942 -1.6753014759
H -1.4031724770 2.2287151666 -2.6624004552
O -0.4392483609 -1.2381607203 -1.7185639286
H -0.7660125520 -1.3633387504 -0.8032819611
H 0.0969566169 -0.4306876218 -1.6353721749
O 2.9525634384 -0.5746489364 -0.2514338700
H 2.6672411266 -1.4185091639 -0.6500618761
H 2.3670140755 0.0981057024 -0.6317600585
O -1.1337451229 -1.2832444653 0.9882650741
H -0.2518736676 -1.1064073451 1.3681557610
H -1.5741219080 -0.4160818128 1.0187634460
O 0.8499771863 1.2569867894 -0.9816811640
H 0.1330414190 1.3549033096 -0.3232081614
H 0.5699635585 1.8804637308 -1.6742244143
O 0.8353158953 1.8261934827 2.5630834410
H 1.4239316396 2.2577333030 1.9381024110
H -0.0405232819 1.8888656736 2.1337481820
O 0.7138037100 -3.6100337068 1.5620115385
H 1.0738973354 -2.8049437882 1.9662679366
H -0.2131328998 -3.3882042522 1.4231445594
O -2.5256624435 0.7497994394 -2.2706501236
H -1.9669227589 -0.0432254656 -2.2642469882
H -2.5521128049 1.0138703008 -1.3366001445
O 1.4678387883 -0.8939603227 2.0753568350
H 1.3000639923 0.0012104435 2.4202601876
H 2.0739756499 -0.7660804704 1.3147050133
31

Cl 0.1252868647 2.8388022032 0.3540275613
O 0.9411489491 0.4553975798 -1.6636920753
H 0.1287157637 0.1532362541 -2.1137399486
H 0.6591672363 1.2299174993 -1.1420739779
O -2.4267106819 1.3716791304 -0.4336599294
H -3.1842899492 1.9121374741 -0.2055682214
H -1.6321329487 1.9118005604 -0.2039075660
O 3.0959128106 1.5830264511 0.2756325257
H 2.9225114136 1.1161698537 -0.5484977831
H 2.2898783570 2.1148257478 0.3984456035
O -0.0403181520 0.7066647365 2.8652974704
H -0.0147684491 1.4589104670 2.2506865120
H 0.8545009793 0.3235583275 2.7925020778
O -1.6204366490 -0.8561416140 1.2230353591
H -1.9676186881 -0.1335207173 0.6743674710
H -1.1397688677 -0.3874071161 1.9404128005
O -2.2684332405 -2.7278792817 -0.9736217848
H -2.1487320015 -2.3241183218 -0.1027984668
H -1.4739015589 -3.2718684646 -1.1045957512
O 0.8779838010 -1.6521351193 0.1333569732
H 1.0118238808 -0.9115210345 -0.4970256225
H 0.0066215864 -1.4451740833 0.5247751569
O 0.3370801201 -3.8573064333 -1.4355592306
H 0.6381964756 -3.1354344000 -0.8425124700
H 0.5437306532 -3.5437649934 -2.3183982231
O 2.4816947165 -0.4504740990 2.2250401560
H 2.0553533557 -1.0412265941 1.5836721161
H 2.8309248250 0.2613514174 1.6612090313
O -1.6122203762 -0.4142481259 -2.5381756569
H -1.8539215788 -1.2442101305 -2.0870613263
H -2.0391712108 0.2686766383 -2.0002093790
31

Cl 0.1686881114 2.2775812880 1.2800989593
O 0.1430153603 0.9472652273 -1.5527882111
H 0.1599743269 1.4439260414 -0.7061003501
H -0.7902253219 0.9515457818 -1.8190574139
O 2.9303171931 0.6753287261 1.2256309423
H 2.4206826602 -0.0692670036 1.5741893426
H 2.2880366594 1.4032934523 1.3034276007
O 3.0501397217 0.4410294960 -1.5717391771
H 2.1657285566 0.7379285173 -1.8270307368
H 3.0662872714 0.5562976447 -0.5998677990
O -2.8250881103 1.2270777108 0.9055244304
H -2.7735149754 0.3551221986 1.3478940579
H -1.9780978048 1.6618790272 1.1159413951
O 3.0362015879 -2.2947393902 -1.7386098869
H 3.5634373264 -2.5648672228 -0.9847117487
H 3.1203814562 -1.3147168993 -1.7673722829
O -2.4738824807 -1.3873447668 1.8619221048
H -1.5239247443 -1.3416847023 2.0566295942
H -2.5172793360 -1.7828661354 0.9722180964
O -2.3986149989 -2.1865189000 -0.8884731043
H -2.6212086619 -1.3326364851 -1.2873860690
H -1.4301793289 -2.2287332922 -0.9590778864
O 0.3953551583 -1.7255647308 -0.8364859151
H 1.2291429503 -2.0837011715 -1.1861400628
H 0.3570292226 -0.7956200115 -1.1432226142
O 0.4233809759 -0.8795182179 1.8856786229
H 0.2513152140 0.0758301764 1.7844163806
H 0.4427977440 -1.2270295882 0.9754085144
O -2.6990499353 0.6283319234 -1.6726383057
H -3.3813312231 1.1076212853 -2.1441923109
H -2.7873313604 0.8934677629 -0.7141925864
