34

Na 1.7455091040 0.7032782055 1.1045729219
O 2.2865190704 -1.8788326703 -1.3265727697
H 2.7043167088 -2.4965458449 -1.9319191013
H 2.6893924088 -1.0059028650 -1.4788005527
O -0.3684848750 -0.2627791724 1.3518802083
H -1.0260479344 0.4284963277 1.5583085131
H -0.7719947823 -1.1152620304 1.6093285338
O -0.3511201033 -0.7370914502 -1.3763898650
H -0.3746898984 -0.5365771511 -0.4149820169
H 0.4174510094 -1.3214785874 -1.4860979575
O -2.9106537810 -1.7491980416 -0.9879183453
H -3.3543754228 -2.3082867756 -1.6304509038
H -2.0331150028 -1.5305654675 -1.3567743850
O 2.8197710146 0.8438548509 -1.0961315574
H 2.1739787535 1.2974740407 -1.6746831576
H 3.6649941037 1.2824297365 -1.2226726788
O 0.5335518981 1.7321941366 -2.2960941231
H 0.0554158253 0.8906935433 -2.1574676799
H 0.2717184473 2.0826361721 -3.1502166384
O -1.7114768536 -2.6242939525 1.4695186368
H -2.1655394524 -3.1447757823 2.1347962110
H -2.3190384095 -2.5200937755 0.7212221277
O -2.0742047895 1.9131294344 1.5276782829
H -2.5550227436 2.2662703851 2.2790929294
H -2.7372052169 1.6658403007 0.8481913478
O -3.6059319879 0.9614940838 -0.4913100676
H -4.4473515012 1.2616926699 -0.8400602417
H -3.5472531846 0.0082912335 -0.6705392467
O 2.8687150960 -1.2777726269 1.3855271196
H 3.0597878267 -1.8753512744 2.1105334036
H 2.7507259548 -1.8230740313 0.5934023309
O 0.5088837747 2.5456653226 0.4824052616
H 0.4093421410 2.6133539476 -0.4763102612
H -0.3909100886 2.5991435804 0.8389065700
34

Na 1.9807283058 0.5407461099 1.0555009584
O 2.7991342173 -1.8509164230 -1.6707871002
H 3.2167086781 -2.3474471607 -2.3789913573
H 2.8877989253 -0.9069737486 -1.8810825311
O -0.1423146297 -0.3248484761 1.5610602689
H -0.7260323443 0.4478501145 1.4809253806
H -0.7207553383 -0.9931388230 1.9568416262
O 0.0429807950 -1.3703076077 -1.0981576439
H 0.0460363223 -1.2577791923 -0.1344623779
H 0.8823670853 -1.7876187416 -1.3449634676
O -2.8224924808 -1.5752036407 -0.9089054136
H -3.0198405931 -0.6874305847 -1.2412948362
H -1.9392070641 -1.7797768796 -1.2426298661
O 2.5648451754 0.9390935263 -1.3569531525
H 1.7385862108 1.3027406587 -1.7204034990
H 3.2563485851 1.5672595410 -1.5824487729
O -0.1711841123 1.3416160733 -1.5908704862
H -0.1780729452 0.3662769755 -1.5143971499
H -1.0894853764 1.5745915150 -1.7998574506
O -2.7437324942 -1.4868023784 1.7793631690
H -3.3236866088 -2.0987635811 2.2375745456
H -2.8475862031 -1.6525286875 0.8117614182
O -2.6335301832 1.2182116975 1.4216558148
H -2.9096453312 0.3225070120 1.7034572423
H -2.9509659618 1.8299357135 2.0902737860
O -2.9785562055 1.3216166761 -1.3595547630
H -3.7455198958 1.7653241702 -1.7294345766
H -3.0094922025 1.4498592835 -0.3939516472
O 3.2714217703 -1.3205280348 1.0267445245
H 3.7132166255 -1.8978611642 1.6517023484
H 3.3065042556 -1.7550822795 0.1593087514
O 0.7214220434 2.4341618685 0.7958061018
H 0.2747975848 2.2684289674 -0.0560842445
H 0.5831348876 3.3536943301 1.0265107749
34

Na 0.8206645736 -0.3217327334 2.1112522226
O 1.9435396790 -2.0006779316 0.9445716796
H 2.4404367570 -2.7578488782 1.2641907471
H 2.5181071940 -1.5489879333 0.2706990987
O 4.4324061709 1.7840382270 0.0079941793
H 4.6228863103 2.4656688883 -0.6431383907
H 5.1721969179 1.8055688581 0.6215543322
O 0.6216564060 0.3212894504 -1.5501875535
H 0.3234379974 -0.6017603195 -1.4871027996
H -0.1401891125 0.8028896689 -1.9155452720
O 1.5932974790 1.3644778816 0.8454288037
H 1.2568385129 1.1229009679 -0.0393112948
H 2.4893945751 1.6914929215 0.7019955815
O -2.9028813380 2.0890132887 0.2889264710
H -3.5078928536 1.3699713376 0.5541504171
H -3.3222925822 2.9172086361 0.5335589669
O -1.3116864322 0.2621938807 1.9465996617
H -1.4818033295 1.1107362018 1.5156244869
H -2.1697571087 -0.1862307473 1.8828275107
O -1.9353746362 1.2883422191 -2.1846097703
H -2.2787615965 1.7435134467 -2.9568617758
H -2.3062712505 1.7339052198 -1.3983669682
O -2.7564082493 -1.3301127725 -1.2379825490
H -2.5236101154 -0.5383480278 -1.7461028930
H -1.9271221737 -1.8094632037 -1.1101594475
O -3.8689751563 -0.3933868192 1.0050330814
H -4.7079036844 -0.7749138023 1.2709370147
H -3.5733930817 -0.8551042280 0.1842512529
O 3.2679580609 -0.7248211125 -0.9977357769
H 2.5729627931 -0.3161812569 -1.5330610917
H 3.8347943940 0.0110197479 -0.7266383412
O -0.0327487355 -2.4032853332 -1.0862812646
H 0.5898718711 -2.5279155734 -0.3518535270
H 0.1599075828 -3.0882242580 -1.7320812384
34

Na 1.0475470954 -0.4065101546 2.2654024257
O 2.2938283437 -1.9260702817 1.1832668180
H 2.7847504332 -2.7282256679 1.3691858733
H 2.7004755170 -1.5269864580 0.3759776332
O 4.1683618434 1.9986856829 -0.0049313529
H 4.2881972074 2.6860148345 -0.6667474029
H 4.9318928429 2.0704780890 0.5748077598
O 0.5969929156 0.2665131068 -1.5712207412
H 0.2184252236 -0.6178830371 -1.4188457200
H -0.0835415601 0.7426018076 -2.0738654245
O 1.4104229952 1.3351313009 0.8671310248
H 1.1014836709 1.0593689190 -0.0195165225
H 2.2808792005 1.7260146964 0.7158903731
O -2.3476307350 1.8798564549 0.3045765216
H -3.1211519721 1.3511896263 0.5816202909
H -2.4079916014 2.7286037260 0.7499219980
O -1.1153424706 -0.4094591202 1.5190743254
H -1.2258599420 0.4473152367 1.0683486666
H -2.0356930249 -0.6563358472 1.7048466570
O -1.8838577373 1.3480913507 -2.4040635552
H -2.1843136341 1.9431512606 -3.0950481878
H -2.1059966760 1.7583427178 -1.5495491793
O -3.1816087057 -1.1116377447 -1.5377203849
H -2.8563034383 -0.3534497247 -2.0454252870
H -2.4374666975 -1.7261855919 -1.4963803746
O -3.8591390086 -0.3161748433 0.9306864299
H -4.7541454407 -0.5198666460 1.2101781868
H -3.7418225553 -0.6857933194 0.0216491778
O 3.2575212808 -0.6696152474 -1.0045059324
H 2.4995171092 -0.3423347767 -1.5105189969
H 3.7584353433 0.1222817856 -0.7700160872
O -0.5906499298 -2.1326624099 -0.7415592744
H -0.7204912738 -1.7623047337 0.1459886408
H -0.0678422011 -2.9322383606 -0.6406709354
