34

Rb -2.1352344527 0.2523942432 0.0643422333
O -4.6880635881 1.6235214701 -0.0642767305
H -5.4740320797 1.4973541235 0.4733085781
H -4.9130488415 2.3413503848 -0.6618196527
O -1.8108227656 -2.3116156755 -1.4711024907
H -2.3000012385 -2.9214307731 -2.0283054564
H -1.7414301031 -2.7202282342 -0.5919007884
O 0.3143608356 1.2872314080 -1.2551217985
H 0.4980958287 1.2649359930 -0.2949533231
H 1.0573287633 1.7891919266 -1.6202195606
O 0.9271041834 -1.4061662649 -1.6256803973
H 0.6968908128 -0.4569165014 -1.6616770198
H 0.1295419276 -1.8820612632 -1.8960763673
O 3.6831975714 -0.5317117692 -1.5386409280
H 3.9114901081 -0.8380508429 -0.6486367139
H 2.9334899291 -1.0721506161 -1.8201523636
O -1.4055733524 -2.4540372110 1.2815314082
H -0.4407571132 -2.4097216935 1.4228382629
H -1.7573629149 -3.0348663182 1.9597766932
O 1.2298107869 -1.7689912631 1.0746415820
H 1.2369819448 -1.7363296925 0.0942670387
H 2.1589125950 -1.7692741177 1.3524879508
O 3.0788296083 2.0727241788 -1.3145000389
H 3.6285256035 2.6509464727 -1.8484431484
H 3.3648065670 1.1460838237 -1.5054239689
O 3.1725995702 1.8114656493 1.4398734409
H 3.2143856707 2.0625762423 0.4931383573
H 3.6299098015 2.4995628668 1.9292329061
O 3.9159764840 -0.9205311772 1.3322214518
H 4.7039892372 -1.2039920765 1.8017981268
H 3.7967339188 0.0282101328 1.5212548446
O 0.4451685314 0.8679882954 1.4706119531
H 0.7562290358 -0.0590408765 1.4801739435
H 1.2224123848 1.3814111527 1.7370235960
34

Rb -2.2275975901 0.1456936839 -0.0517775096
O 3.1839759134 2.1135631320 1.3237452129
H 3.6736860572 2.7543176874 1.8453622364
H 3.5290904067 1.2339188989 1.5675888049
O 3.9831972347 -0.8030278019 -1.2379764880
H 4.7239341336 -1.1078360766 -1.7680031398
H 3.8371519918 0.1344227954 -1.4701581540
O 1.1004655371 -1.2917341070 1.5540083409
H 0.8645874332 -0.3405117642 1.5376123967
H 2.0201247096 -1.3158754099 1.8494101156
O 1.1951299713 -1.6626894541 -1.2094044512
H 1.1827420000 -1.6815212916 -0.2317158835
H 2.1307443829 -1.6645203327 -1.4511589669
O -1.5000990822 -1.9040513137 -1.9182227427
H -1.8865895722 -2.6028864478 -2.4484609283
H -0.5487662957 -2.0835901576 -1.8777522313
O 3.2489237620 1.8869537668 -1.4573939292
H 3.7141029872 2.5720946392 -1.9436778325
H 3.2771171255 2.1405860612 -0.5139497266
O 0.4448962486 1.0177328710 -1.5394939910
H 0.7037105516 0.0765224297 -1.5804032130
H 1.2357011908 1.5000066581 -1.8153572592
O -1.6370301046 -1.7259735982 2.0404348343
H -2.0469143483 -2.3729698497 2.6169488731
H -0.6805562904 -1.8586156473 2.1153896274
O -4.8314174427 1.4625683147 -0.1092258487
H -5.3551896665 1.6959878455 -0.8796967905
H -5.3483729442 1.7643376426 0.6418714878
O 3.9358196241 -0.5847237500 1.5575493875
H 4.6868277516 -0.9300738227 2.0464132273
H 4.0945007050 -0.7871880973 0.6157706878
O 0.3191884260 1.3289651710 1.1655730145
H 0.4643801529 1.3631394741 0.1962261750
H 1.0140564530 1.8837857117 1.5388298100
34

Rb 2.5781656273 -0.1141448880 -0.6724172924
O -3.6502366680 1.8052612324 -0.7277737327
H -4.3554081008 2.3859375341 -1.0225748927
H -3.6809505065 0.9983751038 -1.2790055654
O -3.3712231550 -2.0147644051 0.5448987550
H -4.0123639373 -2.6614095301 0.8491306478
H -3.4924742188 -1.2007145611 1.0939068439
O -0.1680006153 -0.4239143879 -1.7250145182
H -0.5355208513 0.4257966003 -1.3998507455
H -0.8149455580 -0.7427228402 -2.3628687916
O -0.5756416504 -1.8926101439 0.6366031392
H -0.5166521521 -1.5047050960 -0.2563349273
H -1.4945561074 -2.2023900150 0.7142381900
O 2.1081464591 -2.5602472031 0.6366032990
H 2.5061706890 -3.3521510383 1.0017731820
H 1.1528228539 -2.6272027966 0.7999919612
O -3.4740088872 0.3600772446 1.7765000779
H -2.6210342836 0.5939220555 2.1651507802
H -3.6400222296 1.0131606613 1.0802739511
O -0.5619385075 0.5853334235 1.9200951882
H -0.4988969625 -0.3454287658 1.6298620184
H 0.3191700934 0.8414119882 2.2285384205
O 1.6781355061 2.7743699115 -0.5441845725
H 1.9293853735 3.6265189364 -0.9072141322
H 0.7048754249 2.7128417430 -0.6173124118
O 2.1923780383 1.4722810742 1.8614276441
H 2.7033874011 1.7712695425 2.6173283020
H 2.0859798551 2.2341678357 1.2678380448
O -3.3025049612 -0.6796012802 -1.9147105533
H -3.8778784336 -1.0249104486 -2.6015546663
H -3.4214014798 -1.2644745926 -1.1406549329
O -0.8988848523 1.9014516056 -0.4484933229
H -0.8682671707 1.5107131651 0.4526137340
H -1.8303766206 2.1348122881 -0.6072556236
34

Rb -2.0812254500 0.2352064905 0.1142858849
O -4.5831256391 1.7055945592 0.1171913762
H -5.4763683567 1.3994285113 0.2923320828
H -4.6753414219 2.6465129077 -0.0524354939
O -1.4977120773 -2.2365946193 -1.5724495463
H -1.9538413996 -2.7934600181 -2.2073471216
H -1.5614214656 -2.6791893484 -0.7093722423
O 0.2406749789 1.2954162786 -1.2506501130
H 0.5121387474 1.4104682904 -0.3209281331
H 0.8606080266 1.8326710115 -1.7791470550
O 1.2524609507 -1.2316503529 -1.4653850272
H 0.8379855539 -0.3400612178 -1.4902973581
H 0.5931774957 -1.8211668792 -1.8535399963
O 3.7077471985 0.0542460164 -1.4370035750
H 4.5422938348 -0.3857630188 -1.6165535841
H 3.0054389069 -0.6057093195 -1.5823043858
O -1.5171561029 -2.5226027347 1.1985060753
H -0.5673290480 -2.4232838853 1.4165298980
H -1.8725154765 -3.1816571525 1.7986038647
O 1.0618408550 -1.7219130007 1.2756150420
H 1.2815513003 -1.6994970879 0.3253638938
H 1.9082106815 -1.8217012583 1.7574726754
O 2.4502314332 2.4332360375 -2.4156280340
H 2.6669929697 2.8867499713 -3.2324608790
H 3.0746891641 1.6989748666 -2.3228822535
O 3.5103476384 1.1270595499 1.2212618762
H 3.5640845180 0.8243195819 0.2969140612
H 4.1244947754 1.8614652470 1.2960557294
O 3.5408223676 -1.4731831398 2.3447532392
H 3.9862180732 -1.7049430180 3.1616376354
H 3.7170191611 -0.5340855805 2.1744730926
O 0.5494665088 1.0058344030 1.4870899293
H 0.7536136426 0.0508135519 1.5411941758
H 1.3919089763 1.4249943461 1.7050681333
