34

K 2.0912771546 1.5325369705 -0.6329057255
O 2.9532497915 -2.0117060748 1.0472513798
H 3.4146272364 -2.8303000862 1.2458017229
H 2.8429480316 -1.9690939479 0.0813397938
O -0.3894308941 -1.6429943756 -1.2331179095
H -0.2831309824 -1.6477849633 -0.2576586752
H -1.3022993486 -1.9178932016 -1.4100161116
O -0.4678496983 1.0950520592 -1.5931901420
H -0.4956864577 0.1170856636 -1.6174872487
H -1.3905115333 1.3674791841 -1.7146650370
O -3.2901923842 1.2298887202 -1.1522905630
H -3.2812916966 1.4319549870 -0.1928180672
H -3.9803520891 1.7706647194 -1.5439987659
O 3.8861466865 0.6384799031 1.0842883853
H 4.5281392102 0.9675731098 1.7160934463
H 3.7578803563 -0.3026928676 1.2850580571
O -0.0695754104 1.4314193129 1.1190606728
H -0.4238374244 1.3448588153 0.2129960249
H -0.8479879600 1.6965470457 1.6306830183
O -3.2140948100 -1.6107737591 -1.1344671878
H -3.9443582001 -2.1066484091 -1.5121918114
H -3.4057939704 -0.6660159406 -1.2744419409
O -2.7055709666 -1.2335882793 1.7070681517
H -2.9540849786 -1.5729998965 0.8348120502
H -1.8028950856 -1.5395437844 1.8662044002
O -2.8973424643 1.4355235132 1.5793483728
H -3.5065190700 1.8178879878 2.2155233748
H -2.8840281468 0.4610111149 1.7451078518
O 2.2704799585 -1.1763595432 -1.5735291878
H 1.3617004918 -1.5101753696 -1.7036299781
H 2.7695477281 -1.4458571590 -2.3488844547
O 0.1795207511 -1.3388925357 1.4265666004
H 0.2092180640 -0.3670016830 1.5053203970
H 1.0731711175 -1.6688430059 1.5992613244
34

K 2.2296020755 -1.7216072512 0.3849892679
O 2.2007162019 3.3710706119 0.6140649719
H 2.7114710744 3.5594722496 1.4067705937
H 2.2198497136 4.1838258759 0.0995750116
O 4.3892558240 -1.1645863182 -1.0208501082
H 5.2161800857 -1.3344862441 -1.4752144395
H 4.0736228271 -0.2991302156 -1.3142105101
O -0.0389328159 -0.7330257849 1.7402998605
H -0.1192226052 0.2288484850 1.5754715698
H -0.8876638714 -0.9980190996 2.1249749395
O -0.2525563710 -1.8539800229 -0.7564928672
H -0.4045132139 -1.4885908693 0.1370190921
H -1.1048114434 -2.2438042474 -1.0061070226
O -3.0668965880 -2.1123254067 -0.9201274479
H -3.2262056315 -1.2558845049 -1.3720626172
H -3.6781942926 -2.7474542856 -1.3011736875
O 2.4208178380 0.8195219676 -0.8657795356
H 1.6710229358 0.9392327186 -1.4678428761
H 2.5003914945 1.6621847961 -0.3968023270
O -0.2827539251 0.7502915268 -1.7665315644
H -0.2941665725 -0.2036834600 -1.5591006479
H -1.1497065307 0.9163933940 -2.1637918513
O -2.8611693807 -1.3491871399 1.8081060492
H -3.4663188097 -1.7464372680 2.4391517576
H -3.0496769262 -1.7573613567 0.9433475857
O -3.1401669258 1.3252869679 0.6896962054
H -3.1659729829 0.5348803498 1.2486140373
H -2.3039374115 1.7642162139 0.9007347573
O -3.1696746304 0.4802438961 -1.8543199346
H -3.8812368329 0.8549328226 -2.3787978451
H -3.2338494073 0.8840154479 -0.9534817272
O -0.3270625988 1.8495822966 0.7930245990
H -0.2921927091 1.5664546172 -0.1437547921
H 0.3651954070 2.5151341600 0.8956961460
