34

I 2.2660200084 -0.4811125852 0.8549970766
O -4.2042260772 -0.0333087688 1.5758347854
H -3.3045915237 -0.2361805987 1.8670675694
H -4.1730240685 0.8969607652 1.3059886011
O -3.4598085775 1.5218156734 -2.0722195900
H -2.5130742973 1.4271160824 -2.2601146787
H -3.7761083017 0.6168632154 -1.8669562422
O 0.6551191543 2.5740372580 -0.2737935714
H -0.0229400364 2.6367110213 0.4297522614
H 1.2816632156 1.9140380197 0.0606579094
O -0.5830238492 1.0973975925 -2.1970438371
H -0.1679437716 1.6724700057 -1.5090681965
H 0.1713882469 0.7172874102 -2.6668670483
O 0.8697066641 -2.8911913206 -1.4771470814
H 1.2447138520 -2.3255845990 -2.1648142462
H 1.3140290071 -2.5702580383 -0.6762127279
O -4.2206029839 -0.9991482702 -1.1432292857
H -3.3139625909 -1.3474555747 -1.1700778328
H -4.3485845490 -0.7759876036 -0.2046834920
O -1.4313432794 -1.3080877033 -1.0051512581
H -1.1216091826 -0.4742871609 -1.4111016127
H -0.7236050642 -1.9573871409 -1.1737246100
O 1.9212629344 -0.3770641968 -2.6300331556
H 2.0812064603 -0.3229671342 -1.6637049545
H 2.7493527698 -0.1042328257 -3.0299700861
O -1.2784231848 -0.4422917620 1.6694053756
H -1.3331470846 -0.7850477547 0.7548648419
H -0.3364433463 -0.5257457093 1.8784851315
O -3.9238965966 2.5846737229 0.3355263467
H -3.7474840611 2.2673244689 -0.5879532630
H -4.5644826797 3.2926545630 0.2632021048
O -1.3694575310 2.4325718755 1.6306795067
H -1.3543518054 1.4612860884 1.6959888936
H -2.2274707522 2.6360653992 1.2299828578
34

I 2.8825935623 0.4718644673 0.0352917493
O -4.1023866826 1.2389136919 1.8677710463
H -4.6399318369 1.7903008753 2.4373044236
H -3.7793569171 1.8228469946 1.1314600866
O -4.0095287046 0.7658662700 -2.1039826851
H -3.1613587007 0.3525561266 -2.3215828095
H -4.4278840823 0.1531871231 -1.4715797710
O -0.5206468902 1.5358057544 0.0180355644
H -0.7764901259 0.9664326847 0.7705874667
H 0.4520951462 1.5347116632 0.0104092503
O -1.3053074798 -0.2543254723 -1.9831771459
H -0.9691079040 0.4251402128 -1.3628540818
H -0.5173556531 -0.7526800363 -2.2523627328
O 1.1416786756 -1.7248505712 -2.0446102802
H 1.6420311599 -1.0954088495 -1.4806063747
H 1.7641569527 -1.9847446010 -2.7267649251
O -4.9321205944 -0.9031515383 0.0358026422
H -4.1725064307 -1.5049735853 0.0765880892
H -4.7791677042 -0.2665377623 0.7493946912
O -2.3108206198 -2.0159465795 -0.0344513310
H -2.0190481261 -1.4519812438 -0.7772214444
H -1.5786441475 -2.6607356998 0.0727336312
O 0.9026697770 -1.6244500991 2.2242982664
H 1.5305252910 -1.0527428553 1.7514424554
H 0.1295770359 -1.0626625035 2.3754361227
O 0.0697111408 -3.3828975169 0.1992873604
H 0.5095329188 -2.9957497820 -0.5705850812
H 0.4087213867 -2.8637807350 0.9560661868
O -3.1563713116 2.6318937767 -0.2097457011
H -2.1940983439 2.5088089423 -0.1952191887
H -3.4678898011 2.0822169827 -0.9590384822
O -1.6190722984 -0.1820212396 1.9366577010
H -1.9203662977 -0.8701199601 1.3063151068
H -2.4231564250 0.2913005498 2.1970889550
34

I 2.6639864616 0.1214968123 -0.0514734369
O -4.0420625989 1.4432256003 1.8464935567
H -4.5750182839 1.9835036998 2.4307893131
H -3.7091578682 2.0445292160 1.1272446076
O -3.9481700925 1.0346275440 -2.1109092570
H -3.0999593908 0.6384530301 -2.3647724893
H -4.3354134033 0.3907562182 -1.4911303789
O -0.5109046196 1.6164626377 0.0351419675
H -0.8049811577 1.0732530629 0.7923811867
H 0.4495187214 1.4651375468 -0.0084262361
O -1.2997441600 -0.0377220885 -2.0885503334
H -0.9665207477 0.5954915585 -1.4219169021
H -0.5062715850 -0.4038466263 -2.5183547387
O 1.1263578071 -1.2468137866 -2.9622122006
H 1.0991704728 -2.1641667107 -2.6779753158
H 1.7046409006 -0.8182223867 -2.3039989862
O -4.7648203279 -0.7230481705 0.0106988473
H -3.9925147708 -1.3056297144 0.0617796739
H -4.6435655431 -0.0800263819 0.7245611003
O -2.0890847126 -1.8268884838 -0.0813992380
H -1.8543609503 -1.2718625629 -0.8517441168
H -1.2655804263 -2.3185477353 0.1155356551
O 0.8305765217 -1.2497885231 2.9412716326
H 1.4856309755 -0.7778120186 2.4065973857
H 0.0113895253 -0.7466639727 2.8163688699
O 0.4482884976 -2.7754773158 0.5695284903
H 0.5222243116 -2.5150480542 1.5051961918
H 1.0350218547 -2.1267521143 0.1497006543
O -3.0757158615 2.8555656215 -0.1970307147
H -2.1185581314 2.7005762843 -0.1824245235
H -3.4036012314 2.3207063324 -0.9513093474
O -1.6335136654 -0.0344702323 2.0059035753
H -1.8830561447 -0.6989051570 1.3305561370
H -2.4481200991 0.4501971877 2.2107991905
34

I -2.8256013771 0.5173960693 -0.4246976274
O -1.1142717848 -1.3336079274 1.9584483320
H -1.8034977590 -1.5210684449 2.5988875146
H -1.5645218854 -0.8114094888 1.2599731297
O -0.4990255390 -1.9301658069 -2.1204379551
H -1.2299301452 -1.3580648166 -1.8447626985
H -0.3265539087 -2.5031638360 -1.3497351850
O 2.2492099907 2.1239832250 0.8983487076
H 1.5418406096 2.3973747946 0.2965024277
H 1.8785688505 1.3449932831 1.3555320310
O 1.6895932819 -0.2592794169 -1.8186315977
H 1.2152532253 0.5454066931 -1.5530773047
H 0.9709329283 -0.8781484748 -2.0697587130
O 0.1696179353 2.0912326736 -1.0556230309
H -0.6620695072 1.6641507813 -0.7555649231
H -0.0926235805 2.6066320217 -1.8213732493
O 0.2173066079 -3.3095731489 0.2704772969
H 1.1380961975 -3.0160245274 0.3467398167
H -0.2616266233 -2.7667652606 0.9142214560
O 2.6406588113 -1.7755445092 0.3437552638
H 2.3935594294 -1.2255594423 -0.4267415752
H 3.5762244898 -1.5653985700 0.5397208520
O 4.1549725536 1.1570302955 -0.9982967905
H 3.5416461943 1.5521911365 -0.3509948030
H 3.5777010384 0.6248053548 -1.5606159038
O 3.9870042190 0.9612857934 3.0885807310
H 3.7994108132 1.7530011685 2.5727085187
H 3.1297192351 0.5093285958 3.1156533472
O 5.1356665683 -0.6792216874 0.9457668724
H 4.9975770970 -0.0348539868 0.2281553565
H 4.9023828373 -0.1845010031 1.7481493461
O 1.5009859626 -0.2095573436 2.2856416838
H 1.8739564898 -0.8452405619 1.6366841269
H 0.5693513446 -0.4627277597 2.3692447562
34

I 2.8905355392 0.4726343301 -0.0571981567
O -5.5963549321 -0.7507066301 0.5710359766
H -5.3947911687 -0.4739570998 -0.3311093355
H -4.9567609723 -1.4611677944 0.7184075408
O -3.6361447135 -0.0733703087 -1.7287711036
H -2.8135873409 -0.2350981094 -2.2149548561
H -3.5283143616 0.8308327631 -1.3609516308
O -4.1393504598 1.3345911810 1.9891203559
H -4.7068640509 0.6380233372 1.6178486038
H -3.3247916884 0.8829169395 2.2486086094
O -3.0320607636 -1.9424280205 0.2731359936
H -2.2537095203 -2.4702796576 0.0108859703
H -3.1890056673 -1.3249105440 -0.4703717682
O 1.7652696315 -0.9147704650 -3.1261630316
H 1.8900373698 -1.8398266760 -2.8990990241
H 2.1734018035 -0.4414297649 -2.3773472408
O -0.4976842000 -2.8338276129 -0.4897185935
H 0.0415925364 -2.5519117652 0.2633070481
H -0.5199888630 -2.0596367190 -1.0834749667
O 0.8700034457 -1.6511747642 1.8749314326
H 1.4381873142 -2.1246132835 2.4856299209
H 1.4683337663 -1.0386497459 1.3978363736
O -0.8383915793 -0.5213577406 -2.1171656339
H -0.0135298571 -0.5642932851 -2.6329514056
H -0.6982779317 0.1933614946 -1.4642733214
O -0.5639738181 1.4271239625 -0.0948800144
H 0.4036964327 1.4682756214 -0.0179773614
H -0.8707199446 0.9076342127 0.6737968165
O -3.2482248090 2.3824435047 -0.4950881735
H -3.5707437727 2.1672222603 0.4000428963
H -2.2832218045 2.3592125302 -0.4184932198
O -1.6297133102 -0.2205132883 1.9372743364
H -2.1358968049 -0.8619483303 1.3946014176
H -0.8248244714 -0.6943768645 2.1942697182
34

I 1.2622592562 2.2172780323 -1.5377165606
O -1.0617844785 -1.8375341761 -1.3485368452
H -0.1961982314 -1.9894924685 -0.9390692809
H -1.3275693380 -0.9700623820 -0.9835165446
O -1.5924672706 0.5615347528 0.0389815365
H -1.0551155179 0.3426083569 0.8248662850
H -1.0756345340 1.2323013422 -0.4357078688
O -1.9657243966 -3.7167585226 3.6635124695
H -2.4393202443 -3.8394936881 2.8317169262
H -1.0425795323 -3.6967877272 3.3806866788
O -3.7638200732 -0.7886680120 1.4955456617
H -3.2746861515 -0.1383226331 0.9729975743
H -3.4104557664 -0.7075220503 2.4018024644
O -2.5839195559 -3.1645467463 0.6742111753
H -2.2458419558 -2.9211033775 -0.2035194133
H -3.0648886809 -2.3578716141 0.9612500413
O 0.0251729670 -3.0613317166 1.6837969844
H -0.8571333484 -3.1348878999 1.2649367724
H 0.6675406281 -3.0182500390 0.9584728755
O 1.7623342084 -2.1382796481 -0.4028675134
H 2.0420060327 -1.3503986030 0.0911711203
H 1.8078087489 -1.8689637896 -1.3411132340
O 2.3156852668 0.2984232801 1.0602238772
H 2.0102926441 0.8963767595 0.3369073854
H 3.1959474942 0.6099152408 1.2799243855
O -0.1366499781 -0.3401103912 2.3014437321
H 0.7495366862 0.0167498466 2.1357384696
H -0.0483134208 -1.2983970737 2.1231778241
O 1.3216997605 -1.0933884057 -2.9761522589
H 1.4036848913 -0.1507316473 -2.7504658823
H 0.3768967129 -1.2682849153 -2.8719092099
O -2.4217359983 -0.8447810266 3.9850268876
H -2.2898848939 -1.8056459455 4.0342284038
H -1.5879893232 -0.5076772235 3.6245413407
34

I -2.8588477896 0.4759624928 0.0843567745
O -0.9247976313 -1.7866431354 2.1778583423
H -0.7367748017 -2.4311600271 1.4717432514
H -1.5538774237 -1.1700292694 1.7690055609
O -1.0857660192 -1.5434956565 -2.1334990342
H -1.6984630296 -1.7508365245 -2.8420185723
H -1.5992425522 -0.9706631114 -1.5218914924
O 0.5411273602 1.5386827671 0.1838763283
H -0.4325748166 1.5280074414 0.1613033276
H 0.7886840733 0.8619310882 0.8501215213
O 1.3495189337 -0.0649844956 -1.9295457514
H 0.9887948565 0.5445217605 -1.2508136015
H 0.5760927423 -0.5454761474 -2.2637780145
O 3.9237178813 1.0901196862 -1.3831754852
H 3.6257133489 1.9651566235 -1.0750740496
H 3.1484194841 0.7067460467 -1.8186666197
O -0.0742237137 -3.3731888636 -0.0718448722
H 0.8685567594 -3.1587099555 -0.1205106453
H -0.4682265154 -2.8861527896 -0.8105889891
O 2.4951573253 -2.0416322203 -0.2978605114
H 2.1845687179 -1.3820836030 -0.9478687494
H 3.4633599514 -1.9510960401 -0.2634132169
O 2.8074464592 3.2373256440 0.1073204950
H 1.9170397158 2.8429100114 0.1379436479
H 3.2094409065 2.9495429729 0.9351534810
O 3.9581821256 0.8153651436 1.6393195642
H 3.8040455905 0.8515952328 0.6841745593
H 3.1398394328 0.4298905558 1.9922299186
O 5.2303062487 -1.2224598419 -0.0935753585
H 5.0825968145 -0.4785792090 -0.6957838340
H 5.1099407247 -0.8115261124 0.7736083196
O 1.4613967826 -0.5024533364 1.8336520810
H 1.8106016326 -1.1248306505 1.1679155254
H 0.6228855122 -0.9160078576 2.1382177089
34

I 2.4956949239 0.3919704571 -0.5780434928
O -4.1524369536 0.9969376702 2.0870153779
H -4.7878588889 1.3995367061 2.6796911116
H -3.8647415489 1.7052824454 1.4542185306
O -3.7171743326 1.0781732983 -1.9294028652
H -2.8222344385 0.7938891620 -2.1603201959
H -4.0844681419 0.3370060651 -1.4102954064
O -0.5414799580 1.9014943438 0.6819608738
H -0.7792363647 1.2044870533 1.3257097015
H 0.4008039738 1.7682318040 0.4895004802
O -0.9231662940 0.3197606323 -1.6265025352
H -0.9385556270 0.9269510319 -0.8611719349
H 0.0297235334 0.2647809405 -1.8005628851
O 1.4781108520 -2.7977608197 -1.7885369813
H 0.7697354046 -2.5230800749 -2.3758153139
H 1.8727380870 -1.9588203747 -1.4863421900
O -4.5535803164 -0.9298665783 -0.1117792756
H -3.7235243101 -1.4320927540 -0.0550916251
H -4.5710104443 -0.3967215102 0.6956613229
O -1.8682220583 -1.7982923664 0.0298704977
H -1.4576258921 -1.2006299829 -0.6207319660
H -1.1963546886 -2.4884022374 0.2382597390
O 1.1504643988 -1.3391160436 2.3831219026
H 1.6113518587 -0.7970412821 1.7232415171
H 0.3299386514 -0.8650711978 2.5733732340
O 0.1919352549 -3.4454761000 0.7023620440
H 0.7206076496 -3.3626199781 -0.1086055680
H 0.6011676330 -2.8254437669 1.3343060169
O -3.2636444464 2.7447301119 0.2609287542
H -2.2991447605 2.7269635388 0.3494014941
H -3.4451025978 2.2693954084 -0.5771137797
O -1.5500694858 -0.1690400299 2.2494974051
H -1.7218547008 -0.7931116214 1.5123901805
H -2.4200682972 0.1922807835 2.4762485349
34

I 2.8583954841 -0.4966534545 0.0516682788
O -2.2889025543 2.9333559076 -0.8227197845
H -2.3584772129 2.3556709086 -1.6062920725
H -1.3836892997 2.8142966542 -0.5013950287
O -5.7984657246 1.1971226955 -1.7406211470
H -5.1940774413 1.6728938150 -2.3178499145
H -5.4301644630 0.3046912738 -1.7072518054
O 0.1324905747 1.8201484522 0.3449384131
H -0.4039294527 1.2779874033 0.9542529976
H 1.0377954326 1.4742835273 0.4279854992
O -0.0117311193 0.1662243694 -1.9531899596
H -0.0285781764 0.8157344269 -1.2231548994
H 0.9094466688 -0.1352197906 -1.9302332395
O -2.6089221490 0.9730497704 -2.8443628260
H -1.6837145148 0.6931577831 -2.9065030770
H -3.0239647710 0.2839810374 -2.2943633492
O -3.8606718541 -0.8034917921 -0.9885611130
H -3.1249950914 -1.4071092770 -0.7890362614
H -3.8390870879 -0.1438078261 -0.2723996869
O -1.3529840128 -1.7354516061 -0.2949282272
H -0.8264767636 -1.1999069788 -0.9168406074
H -0.7182189387 -2.3486013854 0.1395377839
O 0.7064758594 -1.0889536082 3.0862458140
H 1.3949570998 -0.7279682075 2.5080042115
H -0.0891352821 -0.5838378553 2.8668437578
O 0.5809002904 -3.1093497124 1.0597345095
H 1.3296128553 -2.6757506268 0.6186521155
H 0.5426200399 -2.6239087538 1.9029247480
O -3.9974762151 1.4630457911 0.7366974920
H -3.3996812096 2.0676206458 0.2403131638
H -4.8632081242 1.5953546868 0.3326061430
O -1.6020058278 0.1247239923 1.7690499594
H -1.5969026822 -0.5629639232 1.0703638147
H -2.4860307476 0.5138573231 1.7504419748
34

I 2.8813239200 0.5305950771 -0.0746967482
O -5.4029103716 -0.9258353472 0.5391476156
H -5.2377206901 -0.5672220618 -0.3420684642
H -4.6880004099 -1.5707158737 0.6321660641
O -3.6404040134 0.0828444899 -1.7028461848
H -2.8534219853 0.0988508434 -2.2780795475
H -3.6044194711 0.9516818534 -1.2511394615
O -4.1371182786 1.1839479642 2.1160837865
H -4.6561204484 0.4817494818 1.6890025979
H -3.2713274395 0.7836300908 2.2820267982
O -2.7498123333 -1.8711995055 0.0979351979
H -1.9472705535 -2.3704060344 -0.1486213192
H -2.9494542381 -1.2447170335 -0.6266861305
O 1.1060229525 -1.5295042486 -2.2752631160
H 1.7559300074 -1.8711094049 -2.8926369946
H 1.6126096544 -0.9282055799 -1.6895860046
O -0.2398101258 -3.0422754877 -0.2360240660
H 0.1923390451 -2.6699099000 0.5470185905
H 0.2200629145 -2.6295530206 -0.9845250105
O 0.9503815428 -1.5360267099 2.0052032615
H 1.5179189958 -1.8781127015 2.6985339215
H 1.5246970421 -0.9399801604 1.4802529660
O -1.0625151798 0.4061621860 -2.7281332954
H -0.3974928591 -0.2940973862 -2.7598600497
H -0.8586848622 0.8863373488 -1.9048220178
O -0.5722768272 1.6584087071 -0.1956642335
H 0.3954679099 1.6605041738 -0.1379983814
H -0.8636056634 1.0550200912 0.5150568845
O -3.3791828906 2.4906324468 -0.2882026155
H -3.6502778432 2.1873218464 0.5984115240
H -2.4140334379 2.5374720243 -0.2537803587
O -1.5451752132 -0.0931977049 1.8110049248
H -1.9830043175 -0.7659934168 1.2445728815
H -0.7462508368 -0.5281915214 2.1416554472
