34

Ca 0.2654447731 -0.0037678764 -0.0994149172
O -3.6055712907 -0.8455043250 -1.3297815955
H -4.0138514268 -0.9593398778 -0.4560857775
H -4.2910887066 -0.9838033491 -1.9902894175
O 4.0206629031 -2.1639816472 0.4045412866
H 4.9111417682 -1.8100942741 0.3092943088
H 4.1375478360 -3.0914559037 0.6360838865
O 1.5436703624 1.6889407151 -1.2582344036
H 1.7234875196 2.5862401946 -0.9325442548
H 2.1046824130 1.5454713007 -2.0245623505
O -0.9989282543 -1.7918431421 -1.1869344451
H -1.9485189503 -1.6733821929 -1.3689259706
H -0.8331802947 -2.7375450672 -1.1786996034
O 0.3217645823 1.9345446036 1.3994325891
H 0.7214229366 2.7955734200 1.1967529572
H -0.3761194865 2.0831183756 2.0424812119
O -4.0734162175 -1.0348039431 1.4849276544
H -4.5970305363 -0.3322871715 1.8858665392
H -4.4540121786 -1.8551260365 1.8175883281
O -1.2278783147 -0.5985262698 1.7504959941
H -2.1778699571 -0.7975641018 1.6916241669
H -0.9068958766 -1.0386795666 2.5423588781
O 1.8895567877 -1.3891229534 -1.3075160004
H 1.7592768501 -1.8440725689 -2.1433456623
H 2.7203614454 -1.7159729507 -0.9250707662
O 1.9356518204 -0.6190290860 1.5350599700
H 2.7230267707 -1.1637055381 1.3688165518
H 2.1375053354 -0.0411186445 2.2757156540
O 1.7335966913 4.1048387731 0.2210020073
H 1.3080018668 4.9143360268 -0.0807319673
H 2.5736225273 4.3869292876 0.5981772471
O -1.6307672441 1.0798758952 -1.1018956251
H -2.4432561099 0.5962540734 -1.3345570417
H -1.6810677921 1.9446490744 -1.5151329081
34

Ca 0.1053960446 -0.3145614684 0.2170487798
O 2.3012298193 3.2054735245 -0.3363704694
H 3.1329114787 3.5734816178 -0.0194464232
H 1.9374534863 3.8740278076 -0.9257161141
O -2.3073139162 -0.0575828567 0.7098302288
H -2.7081046929 0.8072818409 0.5314732673
H -2.9360362478 -0.7212163837 0.3856326995
O -0.9019383983 -2.1008566931 -1.0353808856
H -0.4654913094 -2.8448834539 -1.4564375958
H -1.8579374563 -2.2766420444 -1.0583156400
O -0.3607839627 -1.0233356973 2.5064097431
H -1.2697249973 -0.8674381970 2.7825548322
H 0.1061021954 -1.3957413515 3.2589193705
O 0.5801217906 1.7428449064 1.3806752565
H 0.6288650755 1.9180330735 2.3233275235
H 1.1306189520 2.4061777944 0.9297062674
O 1.7603966750 -2.0768343087 0.5456353048
H 1.6633012183 -2.9180320144 0.9985637774
H 2.6593242534 -2.0558517710 0.1729316649
O -3.6824467546 -2.2441398007 -0.5999702475
H -4.3234932309 -2.1044308071 -1.3047091688
H -4.0285963718 -2.9805505895 -0.0847081381
O -3.0126440269 2.5380744975 -0.3432646980
H -2.9175176626 3.3275216047 0.1994873686
H -3.8271520557 2.6704549374 -0.8395229749
O 4.1897670226 -1.5636391818 -0.7735524733
H 5.0022886533 -1.4192097188 -0.2775344713
H 4.4526575989 -2.0631410279 -1.5538035949
O -0.6176304925 1.3851347655 -1.3916751077
H -1.4379984189 1.8831060072 -1.2443084654
H -0.4453058443 1.3830472309 -2.3365518087
O 2.0863896134 0.3848394748 -0.9852594574
H 2.2976912162 1.3305409473 -0.9709012104
H 2.9236287955 -0.0987136072 -1.0446265379
34

Ca 0.2783997630 0.0314712576 -0.0098507870
O -4.4456423517 0.0324298916 -0.9619141945
H -4.8051089425 -0.2843505820 -1.7978421523
H -5.1138848635 0.6285633256 -0.6059646328
O 4.0329410942 -2.1183978758 -0.0023362459
H 4.9340640378 -1.8004124134 -0.1226383177
H 4.1157497389 -3.0655898314 0.1515057269
O 1.1928039786 1.8868141351 -1.2898481696
H 1.3665490220 2.7655473387 -0.9109270023
H 1.7688456197 1.7919327464 -2.0527213479
O -0.8642316303 -2.0005569445 -0.6600930633
H -0.5503848815 -2.7772565166 -1.1277135428
H -1.7267554918 -2.2217972469 -0.2670583468
O 0.3658699008 1.9238735717 1.5353609897
H -0.3614963334 2.0169630168 2.1569509956
H 0.6961145700 2.8145556305 1.3397122765
O -3.2676869234 -1.8986348357 0.7305531351
H -3.7907371798 -2.5922753072 1.1436976459
H -3.8817886335 -1.3407153606 0.2226135368
O -1.1454711607 -0.4985998210 1.9175392700
H -1.9759003384 -0.9678761941 1.7198940490
H -0.8304716976 -0.8510509654 2.7543528071
O 1.8625934058 -1.1100673834 -1.5342169235
H 1.7897077554 -1.3980281949 -2.4477865938
H 2.6858239065 -1.4933859835 -1.1849850189
O 2.1269046465 -0.5639670412 1.4044365883
H 2.8791164769 -1.1315180332 1.1727736862
H 2.3728890951 -0.0629689971 2.1865059510
O 1.5048718325 4.2226042836 0.2820778419
H 1.0050427397 5.0239713114 0.0941085100
H 2.3779204010 4.5257951106 0.5525921736
O -1.7359601269 1.0015789058 -0.9235485365
H -1.6637780383 1.7810996484 -1.4808801648
H -2.6556865630 0.6946846166 -0.9937357006
34

Ca -0.1443224494 -0.0672894017 0.0441241133
O 2.0602069215 2.1277502281 -3.0928099748
H 2.3995355816 3.0247353433 -3.0091901339
H 2.3052450577 1.8421833041 -3.9788847986
O -2.4160010512 0.9723832525 0.1285757290
H -2.6287659758 1.7244820182 0.7055624277
H -3.2500673098 0.5653886918 -0.1183150083
O -0.7733936438 -1.7756179838 -1.5166570152
H -0.6660544406 -1.7482353062 -2.4704322835
H -1.1184613193 -2.6537101833 -1.2848712139
O -1.3951070251 -1.7495544381 1.3982602401
H -1.6487209254 -2.6116162035 1.0298573432
H -1.9609327976 -1.5923558644 2.1579488877
O -0.0369912486 1.5682567487 1.7975914329
H -0.7105590533 2.2369233342 2.0032778935
H 0.7127303687 1.7285700360 2.3759612716
O 1.4487940300 -1.2653576101 1.4147151713
H 1.1794580925 -1.8793789470 2.1018900519
H 2.4126003767 -1.3286327010 1.3144392914
O -1.8642870530 -4.0396080243 -0.2343989743
H -2.7566253281 -4.3308826861 -0.4501989254
H -1.3576336942 -4.8489389857 -0.1087750373
O -2.3825975219 3.1541758419 1.9551819900
H -2.9050959760 3.1671302556 2.7640514654
H -2.4059708352 4.0573381904 1.6221246011
O 4.1271256252 -1.0549303095 0.5736795194
H 4.8007354489 -0.5963840910 1.0862680220
H 4.5750788030 -1.8078685230 0.1746589066
O -0.3737981008 1.3718040031 -1.8910834741
H -1.1968934930 1.8231518941 -2.0926164779
H 0.3211433399 1.7507042498 -2.4537679585
O 2.0662277975 0.3506823545 -0.8389246909
H 2.2804454434 0.9259150383 -1.5885197707
H 2.8935343629 -0.0383399044 -0.5176947799
34

Ca 0.1834889756 0.2319081997 0.4670877461
O 0.2269399894 -0.3165882188 -4.3409214725
H 0.7554942580 -0.8635935979 -4.9328660335
H -0.0768114558 0.4197773054 -4.8824224859
O -1.4101732285 0.1492112530 2.2580637687
H -1.2560440168 0.2167352421 3.2035894062
H -2.3673268303 0.2491839241 2.1144483047
O -1.9379728397 0.5177040830 -0.7432799359
H -2.0668493326 -0.1275722166 -1.4604926574
H -2.7715623764 0.5605448672 -0.2500302481
O -0.4004761012 -2.0931284694 -0.1045338587
H -0.8080178019 -2.7787403003 0.4309561771
H -0.7818956921 -2.1700020743 -0.9959270910
O 1.4904614049 1.4244737454 2.1359698316
H 2.3213319121 1.1135826915 2.5331812016
H 1.3087727048 2.2938024199 2.5019397334
O 2.1381044943 -1.1172937759 0.9727884649
H 2.1366650668 -2.0588432545 0.7803136235
H 2.8412130165 -0.9466147345 1.6214061981
O -1.6677573598 -1.5673002252 -2.6092936325
H -2.3584812139 -2.1083415102 -3.0039781289
H -1.1049007245 -1.2629763339 -3.3414900915
O -4.0196929112 0.5686773516 1.2846517763
H -4.7010999422 -0.1084014145 1.3523554698
H -4.4668803802 1.3981357455 1.4839579629
O 3.8285896097 0.0280178821 2.9179003354
H 3.9209123506 -0.3298308089 3.8072713501
H 4.7042444338 0.3501156472 2.6793153818
O -0.1186575206 2.5830226584 -0.1102281127
H -0.8749120194 2.7278039682 -0.6881085682
H 0.4690947939 3.3344072735 -0.2266727149
O 1.2537763098 0.0360355381 -1.6913809385
H 0.9664428017 0.0539257956 -2.6191702207
H 2.1523474058 -0.3057650461 -1.6921302086
34

Ca 0.3466736743 0.0704466170 -0.0784502051
O 1.9063364772 1.0554525644 1.4904623923
H 2.6751599743 0.7378583999 1.9708684013
H 1.6829537545 1.9197811058 1.8481462195
O 0.8373608182 -1.9364605029 1.1997129178
H 0.3336205623 -2.2606483489 1.9500634873
H 1.5494587003 -2.5722428567 1.0257117265
O 0.7752129627 1.5057872295 -1.9928529504
H 0.7304503720 1.2501784036 -2.9178111957
H 0.6635547850 2.4714530707 -1.9655679689
O -0.4532065535 2.3127218494 0.6126289870
H -1.2384292565 2.4317408047 1.1698766678
H -0.3596752955 3.1034100307 0.0593091675
O -2.7584295466 2.0056792340 2.2768906938
H -2.6750163983 2.0983018703 3.2316149349
H -3.6101497218 2.3981202079 2.0583181425
O -1.7820003066 -0.3558813123 0.9900929932
H -2.2776134292 0.3138341944 1.4866208007
H -2.4224107732 -0.9929214424 0.6385561389
O 0.2420530651 4.2186875029 -1.4119219291
H -0.4156582336 4.7065344239 -1.9188073710
H 0.9644807527 4.8391431583 -1.2689155530
O 3.0805725384 -3.3350130931 0.1461067324
H 2.9881844603 -4.1782627216 -0.3098722128
H 3.9012900624 -3.4063348317 0.6449624459
O -3.2641009622 -2.2148559720 -0.6294599585
H -4.0857819877 -1.9553983963 -1.0594625598
H -3.3929942950 -3.1326971911 -0.3684811010
O 2.3099916367 -0.9147946422 -1.1343038870
H 2.9581438931 -0.4137115017 -1.6361022059
H 2.7408514619 -1.7360751556 -0.8457435178
O -0.7983922982 -1.3136677528 -1.6940650928
H -0.3997521518 -1.8189626340 -2.4066785967
H -1.6632329898 -1.7164018830 -1.5078589388
34

Ca -0.4050739850 -0.1301091066 -0.4960872081
O -2.1197196297 -2.5223824881 2.0948426132
H -2.7204662841 -3.2060599176 2.4102585304
H -1.6125759266 -2.2301626509 2.8603923806
O 2.8257523055 -1.1468348901 1.6893556856
H 3.0550001945 -2.0004066615 1.3076747257
H 3.4758923074 -1.0053740930 2.3857618766
O 1.0364646231 -0.2944185323 -2.4329983369
H 1.4294684022 -0.9662260350 -2.9949679358
H 1.4619761701 0.5543574541 -2.6501936547
O -0.3265966961 -2.5028058768 -0.0839352565
H -0.3454368139 -3.2456157933 -0.6932448113
H -0.8876429980 -2.7480364717 0.6746901205
O -0.6780537072 2.1707542712 -1.1503637819
H 0.0955715287 2.4920563151 -1.6487931147
H -1.4437151268 2.6370048087 -1.4963455490
O 1.7538551087 2.4229235956 -2.5667170927
H 1.9652381779 2.9615724009 -3.3367671296
H 2.4527336066 2.5816759302 -1.9229964759
O 0.0336762716 -0.4904288153 1.9569299320
H 0.9390932084 -0.8350327886 2.0468282009
H 0.0441263378 0.3593045718 2.4225266421
O -1.9298871683 -0.6519575159 -2.3205861106
H -1.7376697647 -0.6100285499 -3.2616048282
H -2.8407026238 -0.9485233205 -2.2388740691
O 1.7014274399 1.1020167976 0.1172123381
H 2.3682090603 0.4862366286 0.4560004472
H 1.4997302322 1.6878704581 0.8669146950
O 0.6654248152 2.3430069464 2.5116567975
H 0.0303184419 3.0615931025 2.4266802457
H 1.2205278209 2.5923408155 3.2582663372
O -2.5815793696 -0.2199743795 0.5590507748
H -2.6629214486 -0.9469278511 1.2020643747
H -3.3792360960 0.3106376350 0.6216018905
34

Ca 0.1326645209 -0.4194387647 -0.2109144553
O 0.4282687878 -2.1772645233 1.4259238102
H 0.4150393678 -3.1256951121 1.2715553833
H 0.6547431668 -2.0508239677 2.3512396589
O 1.9502952903 -1.0807833445 -1.6890655563
H 1.9043332469 -1.5177736781 -2.5424505443
H 2.8829562047 -0.8466937793 -1.5420764335
O -0.7559710577 -2.4216739749 -1.3531325803
H -1.7151907060 -2.4448236656 -1.2701259926
H -0.4985708563 -3.1865359528 -1.8739128507
O -0.5132599071 0.7312590435 1.8154245543
H 0.0121473787 1.3884015205 2.2969934452
H -1.4083559292 0.7205071429 2.1851965335
O -3.2910391506 0.2307382953 2.3552093865
H -3.9340142608 0.9321634766 2.5018630390
H -3.5340739652 -0.4674376017 2.9720447054
O -0.3771040247 1.1428239735 -1.9570820918
H -1.2754435367 1.3531237564 -2.2641805042
H 0.2383969190 1.5978742745 -2.5368202674
O 1.5324974408 2.4760380468 2.7504601241
H 1.4785536202 3.4276805286 2.6159395431
H 1.9464226896 2.3628787338 3.6122161426
O 4.4442191175 -0.0785855894 -0.8501344408
H 4.9576303576 0.5204686302 -1.4020621945
H 5.0887528535 -0.6611570811 -0.4351072414
O -3.1353664231 1.3080433061 -2.4676756499
H -3.4986290745 0.9368687265 -3.2786924099
H -3.6117925805 2.1332901566 -2.3298122958
O -2.3558035337 -0.4137580999 -0.2741018668
H -2.8085671959 0.1005909892 -0.9606115068
H -2.8490259481 -0.2693813398 0.5497174458
O 2.0871114775 0.7665973517 0.5374584753
H 2.9939289953 0.6471197963 0.2186180702
H 2.1061802729 1.3990503793 1.2722856110
34

Ca 0.1184492621 -0.0028150252 0.4229318118
O 1.1829401550 -0.6405644602 2.5150400681
H 1.0242448339 -1.5603980484 2.7507633234
H 1.5753143180 -0.2213967676 3.2856740965
O -0.1771342440 -2.4191070668 0.6859836696
H -1.0369120445 -2.8708328194 0.6507570646
H 0.4532133117 -2.9670716919 0.2093274674
O 1.3857347633 1.9592437749 -0.2434720173
H 2.0356730727 2.0736270690 -0.9558977522
H 1.0193655006 2.8304730516 -0.0703275579
O -0.7436252143 1.9221571557 1.7095068359
H -1.6997347323 2.0494335278 1.8428113118
H -0.3043177804 2.4505738103 2.3807757100
O -3.5604017027 1.8954053219 1.8045887244
H -4.0668014322 2.5415575206 1.3010847134
H -4.0286736743 1.7977684158 2.6404027342
O -2.2736806723 -0.3222611039 0.5382589319
H -2.9149204538 0.3012783297 0.9118374004
H -2.6920373440 -1.1970235954 0.5173154012
O 3.1738206530 2.2702363074 -2.5215113816
H 2.9462207734 2.9924498516 -3.1172675684
H 4.1152192602 2.3771271948 -2.3469460646
O 2.2095053678 -0.3327681586 -3.1122487103
H 2.6355637187 0.5398683737 -3.1535467821
H 2.4903924762 -0.8250494968 -3.8895818476
O -2.9140967464 -3.1224773827 0.5862564100
H -3.3058653021 -3.5774585546 -0.1664914496
H -3.3201214502 -3.5212131716 1.3631595754
O 2.1591220649 -1.0424154083 -0.4364479068
H 2.3782833731 -0.9569964896 -1.3822100043
H 2.9820904640 -1.1762871201 0.0403282553
O -0.3188163220 -0.1696162651 -1.9305512039
H 0.4050207725 -0.2243666674 -2.5784145993
H -1.1488860562 -0.1601772812 -2.4120614484
34

Ca -0.0265616370 0.0382185200 0.6764593300
O 1.2710392050 -0.5482917073 2.7743362800
H 1.1306737685 -1.1909530476 3.4759769863
H 2.2025263629 -0.3109456366 2.8192587409
O 1.1565254638 -2.0349084408 0.0735246415
H 1.4142560345 -2.7381619122 0.6745967941
H 1.8862383743 -1.9268884560 -0.5611971559
O -1.1469205097 1.9655409277 -0.2391695286
H -1.4662700723 1.9243191239 -1.1441950525
H -1.6093068000 2.6888453229 0.2127386778
O -0.8173218453 1.3861645897 2.5176104484
H -1.3534735541 2.1940691513 2.4568520323
H -0.4450012548 1.3505096299 3.4021315522
O -2.2596020368 3.6894281328 1.7254788568
H -3.2078465968 3.7688722193 1.8727820487
H -1.9047871825 4.5721075355 1.8751315401
O -1.9028293200 -1.3814561212 1.0334466478
H -2.5696811795 -1.3664235070 1.7243751802
H -2.2452912885 -1.9318339382 0.3071482591
O 1.3802226207 -0.5065037198 -3.9128435929
H 1.2672603131 -1.2158727428 -4.5548253640
H 1.4976953054 0.2910390809 -4.4401837124
O 3.0747652424 -0.9840316073 -1.7077761011
H 2.6814226184 -0.8563692543 -2.5885495524
H 3.9885078395 -1.2538883676 -1.8408767150
O -2.4965058601 -2.5775824707 -1.4285727116
H -3.3752105623 -2.4906573431 -1.8134588499
H -2.2466615865 -3.4962929998 -1.5729962621
O 2.0923819888 0.9413747458 0.0209969010
H 2.6368532095 0.4009369406 -0.5829232347
H 2.3722605585 1.8547392990 -0.0795627807
O -0.5830804541 -0.4072483901 -1.7052153188
H -1.1889028446 -1.1555237625 -1.8255444179
H 0.0085801110 -0.4075833921 -2.4728565423
