37

K 1.7905170673 0.9718507545 1.4032631976
O -0.5336111583 -0.5157338444 1.7961356300
H -1.4227724320 -0.6474804052 2.1581261363
H -0.4862372822 -1.1239550044 1.0292318081
O 2.3211813117 -1.2707997354 -0.1849959237
H 3.0299821904 -1.8770578568 0.0959021024
H 1.5178232522 -1.8043230835 -0.3030657582
O 3.2004515065 2.2242686086 -0.4583167823
H 3.1119729821 1.7635431637 -1.3088534983
H 3.6059331805 3.0725463738 -0.6454699719
O -0.3539575529 -1.8904897703 -0.5878445426
H -0.4200423825 -1.1138742982 -1.1817429971
H -1.2056004452 -2.3492469271 -0.6489276178
O 2.5092011367 0.3529980006 -2.4231226460
H 2.9593520838 0.0565552547 -3.2175292442
H 2.5686789829 -0.3687458398 -1.7660916612
O -0.6610709277 1.8858591903 0.4536890727
H -0.8556303935 1.0612964496 0.9399834503
H -1.5145133839 2.3375915942 0.4196083065
O -3.1937709612 0.2272395233 -1.8516435110
H -2.3146750335 0.3323457902 -2.2400593298
H -3.2626765232 -0.7045600930 -1.5967158617
O -3.3999803861 -0.6715777152 1.8575921432
H -3.5817393022 0.2025339246 1.4501125462
H -4.0353441009 -0.7833726800 2.5688500558
O -3.5553996452 1.6582136845 0.3873426420
H -3.4907046718 1.2186741049 -0.4958722565
H -4.3153872859 2.2437263578 0.3501254710
O 4.4111480195 -2.8576434583 0.7590706800
H 4.2907264869 -3.6753249357 1.2479291763
H 5.2705303313 -2.9309049441 0.3370990563
O -3.1596513431 -2.3112977025 -0.4402698532
H -3.3654340579 -1.8955254544 0.4168291112
H -3.7754575178 -3.0388105297 -0.5550777820
O -0.3203157650 0.4971298640 -1.9659062126
H 0.5509431980 0.5990217132 -2.3774980297
H -0.3714383640 1.1488115160 -1.2426744933
37

K -0.0713972841 1.8153377887 -0.1167881953
O 0.3493014938 -0.6622922196 -1.2130400328
H 1.2332525731 -0.8526426084 -1.5775475329
H -0.3206124514 -1.0121292370 -1.8218305690
O 4.1130019618 -1.7300924279 0.3150135995
H 3.4700985651 -1.6440867231 1.0511933471
H 4.6893507911 -2.4687081874 0.5164399129
O 2.6509052567 1.8436157393 -1.0746260525
H 2.8913771748 0.9695156105 -1.4453731774
H 3.2279449970 2.4822061734 -1.4996719047
O 2.2266046055 -1.1659771599 2.1770377142
H 2.1152340704 -0.2067067706 2.1104470085
H 1.3436939712 -1.5502748714 2.0988119938
O 2.1148375853 1.7059308491 1.6345031420
H 2.5788229859 2.1814924417 2.3275699213
H 2.6451808809 1.7993508820 0.8236095927
O -0.4785595353 -1.6379144237 1.2555834151
H -0.1147628795 -1.4269585257 0.3735815069
H -1.2691818743 -2.1681351954 1.0746190490
O -3.7161594702 0.1586290239 0.7205263598
H -3.0884251026 0.4634781659 1.3937456358
H -3.5218798580 0.7025204346 -0.0550285593
O -2.1171236843 -1.3515611999 -2.3392732670
H -2.5059867044 -1.8523404554 -1.5891424026
H -2.3901079075 -1.7944047602 -3.1464828788
O -3.0108090081 -2.3390901540 0.0486435403
H -3.3973742446 -1.4823377492 0.3565678947
H -3.6695404216 -3.0212344306 0.1996385774
O 3.0305883778 -0.7667111219 -1.8785689963
H 3.4388055828 -1.0627879682 -2.6953374757
H 3.5027687148 -1.2220831675 -1.1330325524
O -2.4056734266 1.3513088915 -1.6303052176
H -2.3625615468 0.4655840836 -2.0377524889
H -2.8959121259 1.9046338777 -2.2432524913
O -1.3224522490 0.7973776959 2.1397050700
H -1.2238521704 1.0020647613 3.0722176849
H -1.0015043933 -0.1215657574 2.0102120152
37

K 2.4419550409 1.4488277518 0.4580651077
O -0.2649862378 1.6735144350 0.1051349628
H -0.9944031412 2.1756286016 -0.2884376781
H -0.6744021046 1.2308055308 0.8838789055
O 4.3191931782 1.2380803561 -1.3872115476
H 4.0215456746 0.3574419455 -1.6559939314
H 5.0701823061 1.4659081792 -1.9373756983
O 1.5473032651 -0.5985609849 2.1304707230
H 0.7762674539 -0.9723738414 1.6670532377
H 1.2277588571 -0.4020330318 3.0162047909
O 2.5242020214 -0.8680564079 -1.1081858248
H 2.5716629892 -1.7089280058 -0.6281895083
H 1.6884885412 -0.8938315354 -1.5980280794
O -1.4439620774 0.2938690505 2.1587746190
H -1.4013253949 -0.6236225850 1.8587305825
H -2.3832437851 0.5346573057 2.1153167753
O 2.2694513757 -3.0283511295 0.7679550868
H 2.7997639060 -3.8184486826 0.8985171825
H 2.3999938029 -2.4701893119 1.5462638616
O -0.2014976350 -0.5062730791 -1.6468476746
H -0.2341560662 0.3253659872 -1.1346160165
H -0.9738693352 -0.4710652150 -2.2341006989
O -3.4402101985 -1.4971796701 -0.3157160127
H -2.7043998858 -1.9566742923 0.1047841982
H -3.7670309590 -0.8465265844 0.3249856817
O -2.8896056743 2.2361552299 -1.0187274992
H -2.9348750200 1.5278342715 -1.6929884247
H -3.2346378157 3.0321302411 -1.4309512243
O -2.8421555945 -0.0965509314 -2.5251078664
H -3.1431590125 -0.7007271784 -1.8051304752
H -3.3406992519 -0.3183337368 -3.3149789389
O -4.0280576516 0.8781510546 1.1854800713
H -3.7979476264 1.4980570500 0.4699541931
H -4.8670472921 1.1641696033 1.5541896944
O -0.5241403514 -1.9740837537 0.6453975099
H 0.0210923904 -2.7705435343 0.6508953073
H -0.4129264754 -1.5755491594 -0.2456943349
