37

Br -2.6630324539 -0.0533047646 0.7716782463
O 0.3533052540 -2.3024055378 -1.4085092633
H -0.5021662970 -2.2381193099 -1.8565210126
H 0.1148243430 -2.4234889199 -0.4621833963
O -0.3452675573 -2.5015506763 1.2617931951
H -1.0780923123 -1.8647704799 1.2898866627
H 0.3971178576 -2.0459729947 1.6919261668
O -1.8690017444 2.7617713724 -0.9108778900
H -1.0059055948 2.8282076775 -0.4883094289
H -2.3064911579 2.0562152210 -0.4037556130
O -1.3294065178 1.2150782544 -3.2468925612
H -1.8040808610 0.3935996202 -3.0518443887
H -1.5970813399 1.8276726424 -2.5375378035
O 1.9693153007 -0.9051930968 1.8641736973
H 1.4807366135 -0.1424823547 1.5002961365
H 2.4169658902 -1.2985987105 1.0819194007
O 0.9685881576 0.3854300583 -1.9427184050
H 0.7901273999 -0.5645138305 -1.7961802401
H 0.2441440911 0.7077158432 -2.5184199023
O 3.1830596111 2.3376450485 0.9741992748
H 2.2293177322 2.1852041718 1.0178017544
H 3.5484868946 1.8340675537 1.7203070037
O 3.1843291398 -1.8644258078 -0.4205772138
H 3.4664699152 -1.0025249062 -0.7926291010
H 2.4547477356 -2.1610286819 -0.9787119061
O 3.7132010006 0.7181823225 -1.3367053537
H 3.6414535898 1.3205688765 -0.5740353695
H 2.8377967847 0.7646285347 -1.7530295653
O -2.2894506606 -1.3391952791 -2.1940377379
H -2.4146465295 -0.9761359153 -1.2880055133
H -3.1081377365 -1.8003751190 -2.3866108044
O 4.1301206050 0.4591399481 2.9599160840
H 4.8905036937 0.0253486266 2.5671464766
H 3.3693986096 -0.1019376473 2.7023924056
O 0.4722960017 1.2149409318 0.6460525598
H -0.4259077296 0.9020085763 0.8557882754
H 0.6160627644 0.9460007887 -0.2876779714
37

Br 2.2813483225 1.6427303617 0.0976231521
O -4.7793443533 1.5035597881 -1.3751650541
H -5.2619856488 0.6767372777 -1.4440026173
H -4.5446857615 1.5669177233 -0.4219712022
O -0.0390653554 -2.4985455723 -0.6226331967
H 0.8087397002 -2.8938953663 -0.3741082269
H 0.2000399130 -1.7119493096 -1.1565364094
O 2.7184587147 -2.8723849365 0.1508875683
H 3.0177042120 -2.2134626424 -0.5221928343
H 3.3828013634 -3.5622713558 0.1654551511
O -3.5674888758 -1.2695051582 1.6658570226
H -3.4473505363 -1.6006165479 0.7557379520
H -2.6696359058 -1.3008720704 2.0267959806
O 0.5678905839 -0.2002655754 -2.0740032597
H -0.3094742431 0.1516298138 -2.2901127661
H 0.9496799003 0.4365720729 -1.4378818249
O 2.0514340978 -0.9385033176 2.3062266450
H 2.1847372159 -0.1121095681 1.8094235052
H 2.3732298212 -1.6250945483 1.7045621282
O 3.3551878366 -0.9637768531 -1.6537399686
H 3.2997321721 -0.1546402668 -1.1092210414
H 2.5824524355 -0.8807795033 -2.2277581341
O -2.9051551489 -2.0009644627 -0.9932983177
H -2.6340760409 -1.1166255183 -1.3047174870
H -2.0715049994 -2.4834478579 -0.9182963305
O -0.6775409487 -1.2094899622 1.8157590217
H 0.2246088872 -1.1238143375 2.1834290302
H -0.5359124684 -1.7077209409 0.9886624075
O -1.0490533297 1.3428844174 0.7514205973
H -0.9216831130 0.4675153515 1.1734615881
H -0.1483426812 1.6878406604 0.6370636384
O -3.9185276631 1.4817842950 1.2481249448
H -3.8780208892 0.5299820060 1.4734988527
H -2.9867191716 1.7406031241 1.2124563503
O -2.1065811159 0.6244013166 -1.7158308719
H -1.7667702781 0.9450385216 -0.8540095457
H -2.9809759958 1.0389847649 -1.8150577755
37

Br -2.5879177201 0.8966271876 0.6399775176
O 0.9484377483 -1.2251252207 -1.4640910849
H 0.0131997059 -1.1853151994 -1.7517650019
H 0.9054451422 -1.3742028782 -0.4997056235
O -1.7128516094 -2.3365660581 1.3800326409
H -2.1266435122 -1.4622374921 1.2839718354
H -0.7737670595 -2.1299743104 1.5085866155
O -1.4909169349 1.9925944563 -2.3440871563
H -1.9033370681 1.9140101877 -1.4650058987
H -1.6584891867 1.1258834732 -2.7332102786
O -1.9727824306 -3.6502731299 -1.0383827409
H -1.0854693969 -3.9672754111 -1.2216041874
H -1.9104312366 -3.2552433710 -0.1402622052
O 0.9933006824 -1.3911692782 1.3409592858
H 0.8821486852 -0.4207012543 1.4360833590
H 1.9215826485 -1.5709091923 1.5539176165
O 1.1194483223 1.6013003980 -1.4209527735
H 1.1134119843 0.6307698988 -1.5240046797
H 0.2697041271 1.8900502885 -1.8086416536
O 3.4773999646 1.4667527453 1.8998140081
H 2.5138778521 1.5527801175 1.9505882460
H 3.6422840194 0.5128724755 1.9085172204
O 3.8312744271 -0.9608395369 -1.2265406586
H 3.9201720383 0.0170064368 -1.2286787302
H 2.9334289416 -1.1357135308 -1.5450277143
O 3.8972387732 1.7969773662 -0.9243100974
H 3.8440435893 1.8263707116 0.0475680056
H 2.9909705970 1.9855909428 -1.2154959809
O -1.7777578101 -0.9878751068 -2.0099986003
H -2.0221880978 -1.9176231002 -1.8595771337
H -2.0816096574 -0.5241927561 -1.2056639516
O 3.8244359973 -1.4072610820 1.4072259837
H 3.8818994486 -1.3093775055 0.4202836714
H 4.5324125953 -1.9967041075 1.6685428390
O 0.6393242966 1.3538388540 1.3371128639
H -0.3312961905 1.3671927416 1.4180106581
H 0.7907487129 1.5445781449 0.3892228459
37

Br -2.7404786698 0.7971560421 0.9735702078
O 1.6127203066 -1.3960113399 -1.7670961807
H 0.7943702814 -1.6828649563 -2.1949080737
H 1.4766707544 -1.5631613681 -0.8118555169
O -1.3916461868 -2.2399046358 0.7012962704
H -1.7585259108 -1.3720377902 0.9584350238
H -0.4789589236 -2.2356531821 1.0240553497
O -1.5030556835 1.0709197980 -2.1415158907
H -1.9504463159 1.1913263250 -1.2852177060
H -1.4086654677 0.1052546175 -2.1968357819
O -3.9862491239 -1.7965922603 -0.9920507971
H -3.8407022055 -0.9313078403 -0.5756799198
H -3.6198521876 -2.4074349161 -0.3449947804
O 1.3636961000 -1.5583046465 1.0060649459
H 1.0920180701 -0.6220822555 1.1366303583
H 2.2736575591 -1.6135380724 1.3349412037
O 1.1570010257 1.4239079644 -1.6035627935
H 1.3716265847 0.4862113692 -1.7563945583
H 0.2200942127 1.4953348003 -1.8872365780
O 3.2834392311 1.6613155515 1.9109491701
H 2.3173350127 1.5861940993 1.8731245667
H 3.6002711399 0.7469415699 1.9308688524
O 4.3446501597 -0.5640143523 -1.1879139787
H 4.2226163922 0.4108238227 -1.1752136105
H 3.5522552956 -0.9158099984 -1.6177988195
O 3.8094009090 2.1333537559 -0.8623550245
H 3.6902572107 2.1225904814 0.1048075629
H 2.9059709711 2.1652660347 -1.2131597868
O -1.2588330048 -1.8373906682 -2.0560715602
H -2.2035593206 -1.9243437915 -2.2403974788
H -1.2337691052 -1.9884423611 -1.0871580801
O 4.1326800011 -1.1143842447 1.4223833996
H 4.2788295616 -0.9648288237 0.4519286311
H 4.9039947194 -1.5772772659 1.7505952762
O 0.5841868903 1.0657498526 1.1173618414
H -0.3860179307 1.0958354865 1.2214651995
H 0.7466186332 1.2942942613 0.1796943421
37

Br 2.6358504882 1.1235228308 -0.6567219745
O -1.8220971047 0.7039024047 1.7314322254
H -1.9556320626 -0.2251729746 1.4593597984
H -1.4982002528 1.1356174142 0.9186227628
O -2.7742963608 -1.1013500631 -1.8849929872
H -3.0742660860 -0.1672554237 -1.8416358196
H -1.8740503446 -1.0602035868 -2.2352459446
O 3.3657965511 -2.2562800369 0.0406085797
H 3.2735466373 -1.4691193690 -0.5159522808
H 3.6547074455 -1.8652397705 0.8826770501
O 0.6169111012 -2.2697274343 0.6024420060
H 0.7331912276 -1.4980516944 1.1929857691
H 1.5343028654 -2.5308671857 0.3954507990
O 0.1269257836 -0.8388343339 -1.7842671995
H 0.2720241138 -1.3853974275 -0.9854165797
H 0.9666840700 -0.3625011253 -1.8824180877
O 3.8571464200 -0.4008232735 2.1966491084
H 2.9767441474 -0.3335481089 2.5875272189
H 3.8092715268 0.2290260750 1.4606275474
O 0.9682044175 0.0913953775 2.0680303419
H 0.0601548684 0.4167667733 2.1857908066
H 1.3302438023 0.5697803237 1.2987697082
O -5.0058479093 -1.7205465540 0.4515459190
H -4.8690062356 -1.7278693912 -0.5011641006
H -4.1523690511 -2.0231597734 0.7971456358
O -4.6252776689 1.1131680963 1.0186698897
H -3.7630563295 1.0767233537 1.4627308257
H -4.8816363847 0.1822209184 0.9130513616
O -2.1907600236 -1.9057464953 0.6939621622
H -1.3250783804 -2.3405595230 0.7175730251
H -2.3365351082 -1.6542843400 -0.2439958780
O -3.5245765946 1.5451685409 -1.5413478706
H -2.6499377684 1.9028057594 -1.3349527955
H -3.9920322076 1.5071942396 -0.6840322897
O -0.7444008741 1.6408403604 -0.7196378451
H -0.5646795026 0.7595779107 -1.1021256676
H 0.1452417107 2.0174022479 -0.6530735304
37

Br -2.6978937306 0.6122527640 1.0957990906
O 1.6205777719 -1.8747553026 -1.5274613677
H 0.7672657246 -2.1647956837 -1.9113078803
H 1.4975634772 -1.9463496391 -0.5612142516
O -1.4148183540 -2.5411984787 0.5821030157
H -1.8794070152 -1.7306552996 0.8466090336
H -0.5304526549 -2.4529059855 0.9631305211
O -1.7363169104 0.5004188083 -2.0618255237
H -2.2898763144 1.2594342580 -2.2952154680
H -1.9794109434 0.3659487156 -1.1232388247
O -3.4099719259 2.7698169578 -1.3794171353
H -2.8453455395 3.5184823009 -1.1759644591
H -3.3713590548 2.2244930463 -0.5717008124
O 1.3386631809 -1.7596461486 1.2749485503
H 1.0918933974 -0.8124206560 1.3322045645
H 2.2619124643 -1.8006642947 1.5631497707
O 1.0059900680 0.8624535746 -1.6279759032
H 1.2624298828 -0.0803571662 -1.6778070552
H 0.0739782315 0.8738850726 -1.9142070590
O 3.3662575133 1.5483849463 1.6732143264
H 2.3992758831 1.4799764566 1.7052917411
H 3.6775109564 0.6373460949 1.7792832876
O 4.3193705628 -1.0260658795 -1.1650578535
H 4.1874730978 -0.0602115969 -1.2659109754
H 3.5049125076 -1.4220592486 -1.5131732075
O 3.7144836667 1.7047968106 -1.1590665462
H 3.6441150649 1.7937721164 -0.1906720241
H 2.7955550202 1.6712568590 -1.4628735283
O -1.0248067713 -2.3646757644 -2.2113629018
H -1.3737824298 -1.4869663329 -2.4191748341
H -1.2693550431 -2.4999056408 -1.2747869849
O 4.1545781157 -1.2697870225 1.4970660235
H 4.2780632755 -1.2303916137 0.5123794570
H 4.9410444809 -1.6841744847 1.8535760152
O 0.6264397026 0.9120655816 1.1457172927
H -0.3343435688 0.9420958287 1.3080596736
H 0.7212344889 0.9938164270 0.1752948930
37

Br 2.3595419151 2.2693007817 -0.9584982180
O -1.3324848808 0.6082016893 1.9227197808
H -1.1037739590 -0.3357366219 1.8282377051
H -1.2540605500 0.9598893874 1.0162252970
O -1.5369761095 -2.0789741031 -1.2800289307
H -2.1796605777 -1.3315724503 -1.2689520991
H -0.7290579137 -1.7307079023 -1.6858599215
O -3.3988418848 -3.0241598325 1.9877602257
H -2.4397395470 -2.9083577020 2.0421517338
H -3.5460554391 -3.3939836008 1.1019687445
O 2.0236772781 -1.3162503279 1.0018426826
H 1.8818624911 -0.4698721906 1.4836513253
H 2.9262077407 -1.2368242215 0.6515284108
O 0.9207308933 -0.6773749312 -1.5146047474
H 1.2745664151 -0.9445927357 -0.6411113696
H 1.4356067107 0.1234122047 -1.7196444678
O 4.3495233295 -0.3720683886 -0.3718692564
H 4.4031151290 -0.7005902782 -1.2719385591
H 3.9117979883 0.4956372057 -0.4688491174
O 1.5253618208 1.1350456852 2.1462279374
H 0.5582393060 1.1401647598 2.2229203850
H 1.7287677591 1.6468984815 1.3446203680
O -3.7715021135 -3.7297257363 -0.8097112873
H -4.3961919417 -3.0548855100 -1.0884908033
H -2.9141476135 -3.3896861478 -1.1139942742
O -4.0728289757 -0.2898206089 1.5797799635
H -3.2682501154 0.1470957440 1.9021016215
H -3.9406489416 -1.2296085662 1.8057225487
O -0.6920017324 -2.1312064246 1.4026274195
H 0.2767158627 -2.1447507323 1.3994885945
H -0.9531252603 -2.1674017416 0.4613086206
O -3.3871662192 -0.0813909217 -1.1009653387
H -2.8064169197 0.6917552797 -1.1205969538
H -3.7138892001 -0.1303376443 -0.1761882071
O -0.9208231257 1.4008305538 -0.7707186388
H -0.4062149204 0.6131091275 -1.0256972078
H -0.2514664847 2.0997446101 -0.8244790068
37

Br -1.5196299739 2.5396737839 0.5890084366
O 2.9787801553 -2.5363110031 1.3677022062
H 2.8100423984 -3.0566788561 0.5585748438
H 2.8387547005 -1.6163786711 1.1040103563
O -0.3856379190 -4.4296678651 0.3130042366
H -0.9369544297 -3.7606501498 -0.1122763855
H -0.1557905392 -4.0394836225 1.1791423924
O 1.2836623129 -1.3462478819 -1.9525929055
H 1.6788010988 -0.8265680219 -1.2372978866
H 0.9716412653 -0.6934218444 -2.6126795993
O 0.4964617556 -3.0717386915 2.6313721229
H 1.4087354186 -2.9213663270 2.3165571857
H 0.0733544968 -2.2079151315 2.5386455991
O 2.1241998388 -3.9592881727 -0.9299877514
H 1.2667971262 -4.2375303915 -0.5541417000
H 1.9007083942 -3.2259194024 -1.5180090298
O 1.1420489328 2.2871798848 -1.4164787335
H 1.4531591832 1.5286079039 -0.8991876551
H 0.3070109928 2.5185763805 -0.9699698440
O 1.9092375615 0.1119042959 0.5299350785
H 2.0988483761 0.9359038030 1.0131483864
H 1.0351060756 -0.1637243145 0.8861289083
O -2.3660370773 0.5506372218 -1.8855564358
H -2.1177632076 1.1410248724 -1.1408751114
H -3.2585352058 0.8117035579 -2.1200487674
O -0.5940470948 -0.6052769714 1.4720405289
H -0.9426841360 -1.0848673462 0.6942619087
H -1.0139293062 0.2704410821 1.4456718704
O 0.1168087674 0.6669088301 -3.4869868963
H -0.7940713805 0.6190338516 -3.1631543046
H 0.5103583220 1.3719479170 -2.9408587764
O -1.2674876146 -1.9039945718 -0.9079323954
H -0.3834387715 -1.7853414073 -1.3089332350
H -1.8202571620 -1.2215787831 -1.3184604600
O 1.7554554162 2.7532634751 1.5876272892
H 0.7834742123 2.7210872828 1.5778649884
H 1.9567335310 3.2169993285 0.7680568192
37

Br -2.5252955744 1.0465283339 -0.5513969765
O 1.0438907139 -0.7832282867 -1.6913891845
H 1.9831030692 -0.9397038827 -1.8745603245
H 0.9642537310 0.1525788799 -1.4254546312
O 3.8494447804 -1.0985332895 -1.6318163233
H 3.7907068384 -1.3888082825 -0.6810722988
H 4.4569616547 -1.6933332710 -2.0719642562
O 3.6545956075 1.7563854592 -1.2037215772
H 2.7090967167 1.9253937307 -1.3161924054
H 3.7901847995 0.8486047709 -1.5141357694
O 3.5196475975 -1.6697673108 0.9424344503
H 3.5964113951 -0.7628782531 1.3040878560
H 2.5897108076 -1.9243557220 1.0630856044
O 0.7268265446 1.8871122035 -0.8093839853
H -0.2427033295 1.8451849856 -0.9028914646
H 0.8706549246 2.0049338582 0.1446894143
O 3.7662619259 1.0351610241 1.5760679895
H 2.9291812579 1.3989167415 1.9017835197
H 3.8281018002 1.3732978714 0.6650885811
O 0.6741126285 -1.9907513905 0.8079564256
H 0.7569654875 -1.6096421132 -0.0885395437
H -0.0730110047 -2.6243887747 0.7309203118
O -3.2541802897 -1.4188037838 1.7619362751
H -3.3599286210 -0.7829385433 1.0365916524
H -2.5247297506 -1.0347726890 2.2647589014
O -1.6650337014 -3.3680063657 0.3234165234
H -1.7192533017 -2.9703985439 -0.5666169522
H -2.2913784676 -2.8407714334 0.8483095379
O -1.6236801594 -1.8500993360 -2.0792411373
H -0.6966513685 -1.5828191839 -2.1590001082
H -2.0505415853 -1.0419140219 -1.7482295629
O 1.1301969090 2.0469100049 2.0542519588
H 0.4476783372 1.3364632667 2.1731179279
H 0.7985003162 2.8238312414 2.5062923431
O -0.6825438138 0.1046607863 2.0251130012
H -1.2220690811 0.4284161463 1.2736133736
H -0.1799783921 -0.6524892726 1.6528001557
37

Br -2.6726197532 0.9371915251 0.5675093825
O 1.2227615229 -1.0983019319 -1.8775862207
H 0.2718358251 -1.1148391664 -2.1042111362
H 1.2279207991 -1.4378882846 -0.9618352673
O -2.7897909149 -2.1079491797 1.9052900726
H -2.8821130016 -1.2196549738 1.5104595407
H -2.1593759777 -1.9733890839 2.6168366021
O -1.4391118629 1.9735545798 -2.3764251612
H -1.9013696621 1.8804982360 -1.5237908739
H -1.5685484348 1.1125587403 -2.7885364109
O -1.2107477791 -3.3375051634 -0.1372752349
H -0.3582546936 -3.0079119410 0.1817733036
H -1.8380029504 -3.0374180401 0.5433789356
O 1.1260870452 -1.8407682327 0.8433400494
H 0.8863373370 -0.9218037992 1.0836271438
H 2.0640775498 -1.9352227825 1.0722943259
O 1.1766921195 1.6520092612 -1.3725353043
H 1.2558838953 0.7137170374 -1.6354179182
H 0.3282430375 1.9395884844 -1.7590771885
O 3.3515428573 1.1030364277 2.0264125317
H 2.3819577500 1.1064001702 2.0122667594
H 3.5970006984 0.1765662439 1.8915067793
O 4.0889260303 -0.7235985155 -1.4268689031
H 4.0974742718 0.2437103506 -1.2547024108
H 3.2380273584 -0.8932452077 -1.8551802811
O 3.9017814967 1.9350077767 -0.6631641186
H 3.7841392739 1.7895980074 0.2931319007
H 3.0036948561 2.1155516101 -0.9834052432
O -1.5831633502 -1.1674703390 -1.9167090074
H -1.5619626942 -2.0363651579 -1.4718826393
H -1.9077666494 -0.5744344509 -1.2160238288
O 3.9404609874 -1.6155978322 1.0909031051
H 4.0546929392 -1.3489135473 0.1414082127
H 4.6487504225 -2.2280866284 1.2921355279
O 0.5845598691 0.8684744294 1.2645459568
H -0.3825037087 0.9533989585 1.3458229861
H 0.7673853826 1.2297323595 0.3733168323
