37

Li -0.0412116015 -1.5130505316 -0.0514661382
O -2.1993864193 1.0893246102 -1.9871052188
H -2.5755650627 1.4575786981 -2.7897129540
H -2.8860412970 0.5326585580 -1.5764945563
O 2.1366869070 -0.1366705722 2.2797291214
H 2.7977026461 -0.2422316775 2.9681504309
H 2.2245597133 -0.9004552906 1.6802191998
O 1.8281346266 -2.1634840553 0.3383466190
H 2.5217204419 -1.9294021279 -0.3249530564
H 1.9829773690 -3.0736572516 0.6022984115
O 0.2409880105 -0.2423369693 -1.4866833953
H -0.5520318067 0.2009292430 -1.8278582265
H 0.9945305295 0.3317754204 -1.6892090787
O 1.6281943555 2.2063514004 0.8640464379
H 1.8576176004 1.4454777314 1.4336748217
H 1.9208868528 2.9945677735 1.3293973867
O -0.5505446686 -0.8850073634 1.7156338016
H -1.3610033245 -0.3975533036 1.9339280396
H 0.1516906750 -0.5353223690 2.2771594592
O 2.5532266085 1.3890496735 -1.6125916112
H 2.3483141306 1.8360119572 -0.7681135253
H 2.8059126398 2.0684842308 -2.2418052308
O -1.2802759409 2.4353351510 0.4145092488
H -1.4891722965 2.1808385669 -0.4959040066
H -0.3248417863 2.3183248129 0.5235267436
O -2.8085829419 0.7703980318 1.8175301423
H -2.2845992778 1.4948576110 1.3904703559
H -3.2984371505 1.1524837540 2.5491015291
O -1.6232261795 -2.4949307094 -0.6398544096
H -2.4524482943 -1.9970883127 -0.5396394120
H -1.6969071863 -2.9822699759 -1.4625186664
O 3.7072753645 -1.1555671828 -1.2523019826
H 3.4669608783 -0.2435870787 -1.4868781277
H 4.1670312510 -1.5302812191 -2.0061054071
O -3.7237917956 -0.6081939130 -0.3565133843
H -4.6605649220 -0.8163275261 -0.3936781284
H -3.5686505130 -0.1432550776 0.4933268946
37

Li -0.0721958626 -1.7666220608 -0.2131043073
O -2.2067036999 1.2342610627 -1.9598115356
H -2.5461502315 1.5450730286 -2.8020264182
H -2.8957150992 0.6775593878 -1.5565554275
O 2.0752623995 0.3750497382 1.8762660868
H 1.2907666029 -0.1937844783 1.9073901090
H 2.7466250944 -0.1262469211 1.3921072690
O 1.5879071282 -2.7511105378 -0.2058064743
H 2.4170088043 -2.2420575151 -0.2603749306
H 1.8079288925 -3.6747813342 -0.3320379876
O 0.1335270375 -0.1992552347 -1.2936496260
H -0.6112188713 0.2940366959 -1.6715132826
H 0.9436454401 0.2788253967 -1.5277412210
O 1.6003156489 2.6362557388 0.5541584055
H 1.7847144139 1.8599164269 1.1424380509
H 1.9727790173 3.4098927963 0.9847963883
O -0.3325807558 -1.2038520198 1.7137805042
H -1.0771881537 -0.5877332400 1.8792710248
H -0.4098960668 -1.9130636941 2.3571186951
O 2.5666866057 1.2390389017 -1.5861069126
H 2.3332961756 1.9222301923 -0.9227625036
H 2.8716787342 1.6941885188 -2.3744406635
O -1.2542828111 2.5695677616 0.4358360265
H -1.5136786257 2.3792757243 -0.4762035872
H -0.2852005264 2.6491453954 0.4455515841
O -2.3577109212 0.6408171070 1.8291514494
H -1.9293999510 1.4237136421 1.3796732668
H -2.7511890032 0.9652199481 2.6431338182
O -1.7882302876 -2.5904696984 -0.6591165196
H -2.5514770777 -1.9897388837 -0.6006771434
H -1.9597437315 -3.1850376098 -1.3917884135
O 3.6641553935 -0.9052967331 -0.1913298848
H 3.4722952854 -0.1650675451 -0.7968462507
H 4.6119684261 -1.0558613019 -0.2170085484
O -3.6605951228 -0.5093046483 -0.2988336959
H -4.6119754015 -0.6267371948 -0.2387266754
H -3.3680219876 -0.1085639257 0.5466239298
37

Li 0.0387800548 -1.7079095066 0.3088719266
O 3.7317503199 -0.5463289328 0.3157692441
H 3.6361106092 -0.1361944971 -0.5706447596
H 4.6696553536 -0.7116678791 0.4415714025
O 3.0778349952 0.6914458709 -2.0420459203
H 2.4901092029 1.4243723797 -1.7975281869
H 3.6412860606 1.0066141119 -2.7525518770
O 2.1428580003 1.1937917195 1.8321933197
H 2.8332189059 0.6138376525 1.4604140258
H 2.5388248108 1.6730248018 2.5636943563
O -2.6094989978 1.2572975302 1.6230423880
H -2.3772593812 1.9067438310 0.9282692664
H -2.9516130013 1.7502698008 2.3727424756
O -2.2683411955 0.3263248891 -1.8699861322
H -1.4509757055 -0.1937123393 -1.8703654769
H -2.9096875272 -0.1853601340 -1.3567682450
O -3.7537796954 -0.9260032153 0.2814117776
H -4.6892814029 -1.1123268030 0.3898734396
H -3.5383358890 -0.1810823810 0.8713228505
O 1.0287397676 1.9615480152 -0.6465707958
H 0.1563665015 2.3937772175 -0.6450195009
H 1.3465967716 1.9524618516 0.2709102203
O -0.2553510983 -0.3443200262 1.6454782093
H -1.0530857231 0.1909878022 1.7754439524
H 0.4993745300 0.2027259447 1.9091927828
O 1.7572063487 -2.5724374549 0.5893994898
H 1.9715393793 -3.2581250013 1.2245085168
H 2.5380650519 -1.9980730763 0.5158643960
O -1.7209428575 2.6123982689 -0.6205628526
H -1.9763653686 1.8378314220 -1.1852233174
H -2.1070838406 3.3948824584 -1.0219451070
O 0.4009073162 -0.6310878512 -1.3371623215
H 1.0480884710 -0.8908802665 -1.9994596806
H 0.6374541559 0.2888214279 -1.0885368727
O -1.6039452379 -2.6989551051 0.1240713582
H -1.7970144928 -3.5666069025 -0.2334351961
H -2.4517640013 -2.2347497551 0.2368987932
37

Li -0.6238225771 -0.0881233856 -1.8893710898
O -0.6369960281 -3.0141896365 0.6213577915
H -0.2210794021 -2.3376851505 1.1930897302
H -0.3438543355 -3.8702363366 0.9431668662
O 0.2395265703 -0.7593293017 1.9586882716
H -0.6301650627 -0.3225882473 2.0728530276
H 0.7216034078 -0.6760429769 2.7847264596
O -3.3511174749 -2.1654584217 0.2350969095
H -2.5156043016 -2.6326034990 0.4006200327
H -4.0297051127 -2.8380249104 0.1440561724
O -3.6963542834 2.5433192204 -1.5386950740
H -3.4461930760 2.8066243899 -0.6152705204
H -4.6095876630 2.8021251565 -1.6822414569
O -0.0863901797 3.5318472212 -0.4084298248
H -0.4285309556 3.6829772306 -1.3077106110
H 0.5438323512 4.2338917702 -0.2284383623
O -1.5099087325 3.5163683933 -2.8535484329
H -1.6373361341 4.2613676384 -3.4462325222
H -2.3935855587 3.2791688501 -2.4978907893
O -2.2348061461 0.3417397831 1.6349840289
H -2.2251058125 0.3069411445 0.6581623110
H -2.9501577684 -0.2554720349 1.8801918069
O -2.4878446245 0.0462678676 -1.1741871603
H -3.0966654960 0.7577306800 -1.4378201738
H -2.9969740042 -0.7607230111 -0.9859662315
O -0.2905026004 -1.9911044184 -1.9484065514
H 0.1293221735 -2.5424559355 -2.6099694366
H -0.3197897543 -2.5004357919 -1.1199418567
O -2.6542316906 3.1338426724 0.8331451475
H -1.7386935417 3.3720369549 0.6204144846
H -2.5998303784 2.3590523955 1.4083866522
O 0.4547438225 0.7380630233 -0.5048504163
H 0.4295568888 1.6970761440 -0.3622551800
H 0.6437203717 0.3167631539 0.3443754453
O -0.5240784964 0.9884204776 -3.4945750458
H 0.0020005238 0.8843353991 -4.2884347444
H -0.8163864317 1.9155468372 -3.4589252433
37

Li -0.0093265540 -1.4634351186 0.2521465976
O 3.7281039912 -0.5551390897 0.2506955834
H 3.4836406561 -0.2312004331 -0.6435151428
H 4.6732526285 -0.7246651893 0.2395547087
O 2.6149730509 0.4935983699 -2.0157503478
H 2.3124780303 1.3562786598 -1.6312482624
H 3.0569851786 0.6856434420 -2.8461141820
O 2.2865285752 1.2651413821 1.8439424192
H 2.9367796361 0.6524411251 1.4558478833
H 2.6700275593 1.6035404223 2.6566211157
O -2.9715893097 0.3430172781 2.1049731896
H -3.2815899598 0.2230790212 3.0049589037
H -2.0045845393 0.2423332951 2.1190379664
O -2.3692577180 0.4065417560 -2.0873523448
H -2.9823899213 -0.0830066893 -1.5041193341
H -2.8258054374 0.5513845657 -2.9195726953
O -3.7688829393 -0.9577766061 -0.1069082329
H -4.6956780075 -1.2062695381 -0.1430565095
H -3.6322091654 -0.4690842837 0.7383392438
O 1.7022438877 2.6004732622 -0.6854281801
H 1.9278676933 2.4140690167 0.2372449886
H 0.7358590197 2.6627727935 -0.7065433799
O -0.2953232118 0.2382598875 1.2982690252
H -0.5407597729 0.9816833938 0.7133295885
H 0.5465761201 0.5067891232 1.7055472318
O 1.6229566867 -2.2293344460 0.9396541744
H 1.7937399865 -3.0686018631 1.3687838241
H 2.4820573854 -1.8204593543 0.7371355808
O -1.1474793962 2.2595551681 -0.4397413907
H -1.6496305442 1.7533073422 -1.1069958728
H -1.7452976774 2.9239653825 -0.0875935131
O 0.1799553620 -0.8847119748 -1.5856331884
H 0.9777861340 -0.4453240823 -1.9211568925
H -0.5863437093 -0.4744413975 -2.0088528244
O -1.5700471669 -2.6178025427 0.3739635369
H -2.4366493242 -2.2236664557 0.1737524111
H -1.5826233334 -3.5074639535 0.0162801156
37

Li 0.5884331133 -1.2449783278 -0.1604314579
O 1.9212786176 -0.2720836354 3.4253442520
H 1.8184677229 0.0260684309 2.5071277768
H 2.8501592522 -0.4678823609 3.5624503070
O -0.6628880095 0.3742607226 -3.6745781840
H -0.9097018464 0.1949771338 -4.5847861664
H 0.2864653606 0.5875804698 -3.6686206946
O 0.9426467258 2.5187142955 -0.8669697442
H -0.0184109222 2.5109136184 -1.1251386080
H 1.1708898149 3.4262335057 -0.6506623382
O -1.6322887902 0.4434708762 2.5408686965
H -1.3393025388 -0.3353604103 3.0556991805
H -1.8171770142 1.1383981942 3.1780017886
O -2.9580995126 0.3434883613 0.0739894925
H -3.9119472741 0.2337765990 0.0758033359
H -2.6703524897 0.3474438441 1.0040938279
O 1.9742817282 1.0352244149 -2.9442750278
H 1.7472936037 1.6929708861 -2.2539879773
H 2.6641360076 1.4236473668 -3.4880541320
O -0.3171126200 -1.7136417462 3.6599048776
H -0.4992583043 -2.2024876960 4.4660312513
H 0.5640205542 -1.2856447838 3.7633573187
O 2.1793176436 -1.2029389334 -1.2679673670
H 2.7932024250 -1.9073189307 -1.4812124991
H 2.2755265737 -0.5137684103 -1.9474144581
O 0.2422200129 -2.6866638928 1.0895402569
H -0.2403087368 -3.4633232437 0.7986217543
H -0.0060179665 -2.5324278294 2.0172194725
O -1.5680580174 2.2271568745 -1.6491643601
H -1.4870860006 1.7036293193 -2.4603730746
H -2.1340218011 1.7097953213 -1.0561334702
O -0.9680511021 -1.1646294156 -1.3066572838
H -0.9201351264 -0.7905157443 -2.2003516038
H -1.7644196485 -0.7884254721 -0.9010541031
O 0.7212644536 0.4163713009 0.9630907336
H -0.0934279124 0.6108281145 1.4590630518
H 0.9055159810 1.2060302196 0.4197777253
37

Li -0.0218866767 -1.9660515250 0.2916044151
O -1.8013136890 -2.6682169619 0.7891350254
H -2.0169321505 -3.1880067307 1.5662441255
H -2.4566286881 -1.9523038047 0.7457694650
O 1.7705605676 -2.7050505915 0.1739268536
H 2.5071798278 -2.0715226854 0.0877997768
H 2.1540438302 -3.5786912927 0.2607352128
O -0.4527819153 -1.5426549842 -1.6571105272
H -1.1464384196 -0.8845863151 -1.8579621243
H -0.6197301181 -2.3063385077 -2.2155260452
O 0.1773618487 -0.4449958914 1.4227685174
H -0.5313319558 0.0688070388 1.8388267341
H 0.9998726382 0.0324536985 1.6228830115
O -0.1298287734 2.3766301140 -1.7206478081
H -0.0841261724 3.1940658382 -2.2229061727
H 0.0035648747 2.6198555540 -0.7649102859
O -2.1637108583 0.6109552775 -1.9408813983
H -2.6809320891 0.7726070581 -2.7343396632
H -1.4940016037 1.3361508675 -1.8883846962
O 1.7854238945 0.2460675037 -2.1151891303
H 1.1072458748 -0.4443323196 -2.1140212091
H 1.2896447641 1.0760371603 -2.0370160200
O 0.2349212296 2.8584327526 0.8488978881
H -0.4932098943 2.4928938376 1.3711898265
H 1.0399636020 2.4203193367 1.1640405373
O -1.8625585401 1.3308266090 2.2241347352
H -2.2294497216 1.5594273919 3.0812790083
H -2.5727326161 0.9124292561 1.7082958275
O 2.4471493658 1.1656903907 1.7108133310
H 3.0128491552 0.6694019246 1.0877572276
H 2.9722001667 1.3340755997 2.4965500273
O -3.3545673070 -0.2469253776 0.4267285914
H -4.3135930523 -0.2741218065 0.3718634403
H -3.0394863364 0.1085480811 -0.4280202168
O 3.4803510149 -0.5124725981 -0.2236248703
H 2.9440231781 -0.1660988301 -0.9828557487
H 4.3897910180 -0.5699906811 -0.5268624004
37

Li -0.7466294122 -0.5508033794 -1.5022071052
O -0.8030233622 -0.4172787840 0.5248825573
H -0.0412002151 0.1397690148 0.7944642511
H -0.7154938505 -1.2276182678 1.0526704171
O -2.1963708929 2.9241860148 -1.0519653022
H -2.7683890975 3.6536174351 -1.3034481067
H -2.5508820322 2.5481709078 -0.2139365943
O -2.3089834249 0.3365661189 -2.2070518454
H -3.2062576676 0.0026903430 -2.2569520436
H -2.3778230706 1.2810955535 -1.9859667613
O 1.7359112386 -3.0400972716 0.0484753788
H 2.2147302261 -3.8723077702 0.0794804053
H 1.2431525969 -2.9663179383 0.8935385902
O 1.3938848176 1.1268081797 1.1962590063
H 2.0863866508 0.6749398476 0.6842350791
H 1.1977472190 1.9522598026 0.7227100567
O -0.3414473253 -2.4307907710 -1.7805595168
H -0.3652133525 -2.8970591433 -2.6182963616
H 0.4035612894 -2.7921508125 -1.2714512130
O 0.1775809256 -2.4835781866 2.2230507216
H -0.3149903688 -3.1145300833 2.7529797722
H 0.5445758405 -1.8071773590 2.8366311460
O -2.9172048820 1.3893489188 1.0112258121
H -3.0866668372 1.5464402749 1.9420713851
H -2.2679669833 0.6658688651 0.9558325987
O 2.9579822093 -0.5603975569 -0.4587546599
H 2.6852373937 -1.4782605981 -0.2736140773
H 3.9057223524 -0.5741444602 -0.6115156276
O 1.0865091776 -0.3349824877 3.5539623075
H 1.2877585576 0.3777067473 2.9268474698
H 1.6148267950 -0.1862159280 4.3401656654
O 0.5598539113 3.0826839076 -0.7095834214
H -0.4060485559 3.1908904099 -0.8115479801
H 0.9555556472 3.9326947708 -0.9165087772
O 0.7917174400 0.5346440032 -1.9894633814
H 1.6473361840 0.1892074169 -1.6960522011
H 0.8039583187 1.4787573361 -1.7710388180
37

Li 0.8911861519 -1.1867894574 -1.3528569270
O -0.9379114717 -0.8710637965 -1.9375671984
H -1.3276978476 0.0050642966 -2.0715783993
H -1.6157624707 -1.4506279138 -1.5639066752
O -2.2492447255 -1.3155170065 2.0036437068
H -3.0072575871 -1.2894019000 2.5936818866
H -2.1827604450 -0.4293880747 1.5842745490
O 1.1288641294 -0.2382289323 0.3645830775
H 1.7329711910 0.5173589696 0.4648607834
H 1.0656940816 -0.6570491788 1.2426766894
O -1.5486290034 1.9113899958 -1.8815316381
H -0.6515868946 2.2872343005 -1.9420740523
H -2.1238686692 2.4683161728 -2.4114130037
O 0.4115056415 -0.9923343299 2.9400041803
H 0.8030820729 -1.6111523326 3.5609948954
H -0.5142425291 -1.2632980240 2.8108526371
O 2.0398472780 -0.0724759789 -2.4750077620
H 2.3358498532 -0.2427697921 -3.3711951747
H 1.8324479975 0.8757348870 -2.4214076398
O -1.4293255424 0.9680271331 0.7913970931
H -1.7679250093 1.4101905309 -0.0026481127
H -0.5896780785 0.5644545480 0.5017834252
O 0.4165332626 2.0527517522 2.7427625968
H -0.4178724422 1.9853188805 2.2565298814
H 0.5176105584 1.1828543551 3.1506453168
O 1.2051650014 2.5775052648 -1.8181952993
H 1.5471803674 2.6384483186 -0.9011275771
H 1.5302563460 3.3564146515 -2.2777915861
O -2.0642813530 -2.9228091884 -0.2980652278
H -2.7706919181 -3.5578931113 -0.4369897607
H -2.2305161164 -2.4938725727 0.5618739487
O 2.1860750245 2.3217936116 0.7443572777
H 1.5988239730 2.3590324468 1.5396920482
H 3.0445923294 2.6625651488 1.0065108001
O 0.6818891259 -3.0546765128 -0.8480782902
H 1.1914993775 -3.8655928710 -0.8555503990
H -0.2420737355 -3.2834763958 -0.6519087947
37

Li 1.4611093454 -0.9694117850 -1.0603530790
O -2.4911204827 -0.4211915410 -2.3884509191
H -2.8252478642 -0.4449863440 -3.2880524249
H -2.4683330807 -1.3366552810 -2.0570302873
O -1.5077803060 -0.9870377327 1.2447657992
H -1.9028616885 -0.2321783347 0.7740771843
H -0.5602339249 -1.0125674070 1.0166199694
O 0.7528186855 -2.6108861878 -1.8357537479
H 0.9998024565 -3.1789684938 -2.5667761651
H -0.1644386373 -2.8209490157 -1.5940901550
O 0.0498514062 0.3173605960 -1.2953844382
H -0.1274460675 1.0681916675 -0.7052378444
H -0.7350013129 0.1817327945 -1.8442155918
O 2.3608342950 2.5826214322 0.0920521168
H 2.8238207498 3.4214747624 0.0254649538
H 1.4111507245 2.7886699646 0.0941196294
O 3.0352160305 0.1532084767 -1.2622262074
H 3.9760464322 -0.0165677168 -1.1927785910
H 2.8901932923 1.0589994101 -0.9413024816
O -1.9396768993 -2.7257382246 -0.8907139530
H -1.8975981992 -2.2682612070 -0.0246139351
H -2.4545303463 -3.5255620542 -0.7559674206
O -0.6208775535 1.0933056674 3.0244192798
H -1.0502720891 0.2633129628 2.7589436719
H -1.0170940829 1.3634832156 3.8564616115
O -2.9385429450 1.1300415844 -0.1238083542
H -3.0218197545 0.7092792413 -0.9971125214
H -3.8331060888 1.3124524381 0.1744868787
O 1.2966003118 -1.3814365520 0.8840054738
H 1.5832177754 -2.2239963685 1.2435157638
H 1.7092056255 -0.6671332854 1.4375386854
O 2.1686734693 0.6867693715 2.2741005771
H 1.3867148215 0.9645209654 2.7703196736
H 2.3934617313 1.4234531335 1.6863614680
O -0.4081220420 2.4304853949 0.5326397996
H -0.5062319030 2.0940783291 1.4412485709
H -1.3124932787 2.5687903478 0.2250467757
