37

Cl -1.8578170972 0.0600839112 1.8551626502
O -1.6949920159 3.0874929359 0.6406517001
H -1.9289087908 2.2470584173 1.0687139499
H -1.6621794913 2.8790729047 -0.3006779233
O 1.0513530876 2.9459417922 1.5191572232
H 1.2025941830 2.2966281048 0.8210694258
H 0.1270027389 3.2002233020 1.3530055528
O 2.6280981178 0.1603501087 -2.3484873699
H 2.8325610676 -0.7253170779 -1.9934450937
H 2.2356592682 0.6197167714 -1.5983776480
O -0.1471693644 -2.0400176982 -1.3035230179
H 0.0779603754 -1.1297400533 -1.0399525605
H -0.3062959236 -2.4726806054 -0.4359410364
O 1.0271327298 0.6900707959 3.3149064111
H 1.1010486487 1.5572331596 2.8783104959
H 0.1014959041 0.4472694519 3.1574277197
O 2.7543929743 -2.3923587446 -1.1313222991
H 2.8486572830 -2.2314810675 -0.1837400681
H 1.7993809772 -2.5121841391 -1.2597604915
O 0.1980956489 -0.1629398260 -3.7622044484
H -0.0877167424 -1.0056956841 -3.3932314149
H 1.0979074274 -0.0426305912 -3.4028552370
O -2.8346826137 -0.6427951193 -1.1356625556
H -2.7445544461 -0.4723699124 -0.1813531678
H -2.1534006431 -1.3062998545 -1.3123777590
O -1.3807030682 1.5488683274 -2.1041413679
H -0.9055559692 1.1461126424 -2.8531078271
H -2.0328552768 0.8644297878 -1.8496310346
O -0.3083494246 -2.7509030908 1.3581696413
H 0.5553021512 -2.3411596126 1.5343679935
H -0.9382309922 -2.0699513742 1.6481373280
O 2.0814149408 -1.0843135361 1.4412315319
H 1.8873224535 -0.5494546961 2.2390213720
H 1.7451589996 -0.5194952716 0.7328381751
O 0.4107881189 0.6133322942 -0.2476713808
H -0.1513801891 1.0561288356 -0.9243156375
H -0.2144791605 0.4699856338 0.4975734640
37

Cl 2.8969327435 1.7310092772 0.0948666281
O -0.2478184298 1.7131799526 -0.0908030271
H 0.7053608954 1.9288455719 -0.0670115404
H -0.4085108126 1.1854243439 0.7148173231
O 2.3045035838 -0.5467894777 -1.9491478685
H 3.2010275401 -0.9038117609 -1.9772838712
H 2.4200845569 0.2660441461 -1.4104686043
O 1.9266149919 -0.2348747709 2.4121570839
H 2.2699419799 0.4760511409 1.8389683732
H 0.9877698959 -0.0340675799 2.5266247363
O 4.7399860357 -1.0112559199 -0.3745283619
H 4.1862107355 -1.6071006617 0.1426422241
H 4.4276795342 -0.1276393115 -0.1209846922
O -0.9511928221 -0.0092203688 2.0206882259
H -0.9895023586 -0.8030441877 1.4495201869
H -1.8738786750 0.2412326689 2.1795233514
O 1.8982697152 -2.2201549970 0.4577117719
H 1.9639515210 -1.6816131832 -0.3480673884
H 1.9362364720 -1.5695216379 1.1909801477
O -0.5195206728 -0.3231190276 -1.9621112399
H -0.3998394729 0.4547087984 -1.3763337520
H 0.3749794529 -0.5271112380 -2.2735083615
O -3.7726069989 -1.7448477451 0.1045404480
H -2.8849226889 -2.1107509724 0.2304236752
H -3.8407155717 -1.0280818964 0.7526964631
O -3.0626708027 2.1252635795 -0.4305032229
H -3.2100729273 1.4594700446 -1.1347011109
H -2.1006275550 2.2472218034 -0.4004849265
O -3.3625414420 -0.0379704539 -2.1675614070
H -2.4309419485 -0.2084141080 -2.3720385666
H -3.5847842811 -0.7026524426 -1.4908294980
O -3.6901469750 0.6871616088 1.7263046761
H -3.5031254325 1.2882424756 0.9565456922
H -4.3771992129 1.1073487598 2.2444497028
O -0.9045423267 -2.1103598240 0.1738564646
H 0.0076283418 -2.4081307764 0.3530932681
H -0.8108785669 -1.5632166097 -0.6314659541
37

Cl -2.3187309754 2.0726329434 0.2355434392
O 0.8094773524 1.5776057956 0.6998515400
H -0.0551773017 2.0147530297 0.6028956425
H 0.5933436050 0.7467608357 1.1698740001
O 3.6707154534 1.4095371626 1.1776296906
H 4.0093524460 1.2638389130 0.2788223592
H 2.7677744873 1.7379959750 1.0569328533
O 2.9686808572 -1.2755660489 1.7713058056
H 3.2844399695 -0.3561617045 1.6884138378
H 2.0585940021 -1.1957212865 2.0899103930
O 1.5970648072 0.7079188090 -1.8056077167
H 0.7666383378 0.5550580720 -2.2776922724
H 1.3142808063 1.0725956831 -0.9394545861
O 0.1111802636 -0.8646414910 1.8959895573
H -0.0942266190 -1.3514103914 1.0704204029
H -0.7538826342 -0.6762572665 2.2910701265
O 2.4603996118 -1.9094078309 -0.9270286925
H 2.1962558270 -1.0319636586 -1.2518240876
H 2.6897869228 -1.7634699129 0.0131855742
O -1.1806476916 0.1716689974 -2.0139277070
H -1.3748190431 0.8343587219 -1.3198423483
H -2.0795155293 -0.0977396570 -2.2708165339
O -3.1590942854 -2.2474187097 0.2595156452
H -2.2544505932 -2.4625812871 -0.0078750889
H -3.0503345510 -1.6469898109 1.0129196823
O -3.9521859984 -0.2541881899 -1.6650230082
H -3.7972942637 -0.9944480517 -1.0513480247
H -3.8083573314 0.5322671501 -1.1195689601
O 4.3967034124 0.6171626655 -1.5331754346
H 4.4160764715 -0.3369402510 -1.4043828079
H 3.5037136718 0.7754642180 -1.8797316205
O -2.6215587277 -0.1937665785 2.2518479396
H -2.5544433587 0.5730076379 1.6300155350
H -3.1995592557 0.0978030699 2.9585331817
O -0.3613444016 -2.0777705277 -0.5586966040
H 0.5707132849 -2.2763809883 -0.7612689407
H -0.5920037835 -1.3043464627 -1.1130904776
37

Cl -0.4274740045 0.7137483576 2.0128754496
O -2.4888703406 -0.5875982564 -1.9791841291
H -2.5855311756 0.3802507469 -2.0510963659
H -2.6566402986 -0.7658189146 -1.0357508795
O 3.1304014989 -0.4336891175 -2.0477569407
H 2.1915276208 -0.5840267406 -2.2328714746
H 3.1802356416 0.4870120949 -1.7524908232
O 0.6410086391 -2.0079651692 0.6620390173
H 0.3757842536 -1.2429455173 1.2035341473
H 1.6257953502 -2.0177891862 0.6796952099
O -1.5534965331 -3.6625327598 0.2476622808
H -0.6937210452 -3.2396292827 0.4357875759
H -1.6194878306 -3.6637991006 -0.7101058480
O -2.5143676249 2.2471064407 -1.6986380368
H -1.5631423123 2.2784409103 -1.5163048231
H -2.9129804847 2.2054041397 -0.8114941954
O 2.9089938760 2.2043982127 -0.7776931767
H 1.9223696852 2.1649891321 -0.8342215581
H 3.1627427568 3.0896238373 -1.0413063047
O 3.3402347538 -1.6458233627 0.5557960236
H 3.3977139246 -1.3317573159 -0.3638766421
H 3.3141730436 -0.8249430485 1.0817897762
O -2.7833991054 -1.1401425771 0.8148909686
H -2.0363640991 -0.6941433708 1.2518364709
H -2.5233809229 -2.0751734111 0.7592460796
O 0.2690468296 1.7625274458 -0.8636269833
H 0.2811704641 0.8728644232 -1.2799096364
H 0.0287333753 1.5677158141 0.0659233085
O 0.2563742084 -0.8272809122 -1.8684976896
H -0.7103185961 -0.8212593382 -2.0430014550
H 0.3566813355 -1.2927509180 -1.0147104591
O 2.8940896866 0.8587241889 1.8324089070
H 1.9464129122 0.8648474350 2.0399547249
H 2.9801169722 1.4293341886 1.0550564726
O -3.3919151969 1.7566565184 0.9936576145
H -2.5244486643 1.6926525899 1.4239175702
H -3.6720309365 0.8349431351 0.9417897441
37

Cl -0.1301108341 0.6223132835 -2.5119900806
O -0.1899970912 -0.6957223004 1.5678852496
H 0.7312693505 -0.9266232251 1.7865890720
H -0.3722607291 -1.1912070535 0.7420489057
O 3.4851219199 1.1172120223 3.0249560606
H 3.3367098250 1.5408594756 2.1509181197
H 2.7772207148 1.4498698731 3.5800136281
O 1.9368355308 -3.1104785121 -0.5837595573
H 2.1340740214 -2.9312913020 0.3427220480
H 0.9826482292 -2.9491041516 -0.6711197266
O 2.8607352622 2.0752892654 0.5154580590
H 3.0702314116 1.3779432652 -0.1203304995
H 1.8855082114 2.1271176309 0.4868036016
O -0.6978074883 -2.0154596830 -0.8337187647
H -0.5430392043 -1.2782395544 -1.4550097525
H -1.6718485133 -2.0649220828 -0.7354342155
O 2.6349435268 -0.3822047047 -1.1594594365
H 1.8510458033 -0.0393279337 -1.6245965491
H 2.5379032654 -1.3490743668 -1.2046783461
O 0.0393294119 1.8543967230 0.4154063464
H -0.0350316956 0.9870948217 0.8648573903
H -0.0184028223 1.6245603916 -0.5324008611
O -3.1490615168 0.8272952044 -1.8886663157
H -2.1946721918 0.7698132915 -2.1219573392
H -3.5779735268 1.1612975040 -2.6782700595
O -2.9952716414 -0.3316283005 2.0806055746
H -3.0326392544 0.5766968050 1.7284657028
H -2.0462616528 -0.5007428276 2.1755695948
O -2.8458339416 2.1587848118 0.6932438488
H -3.0715456985 1.8173997302 -0.1851485182
H -1.8790634932 2.2491798619 0.6615950622
O 2.5658210711 -1.1825963634 1.6321950848
H 2.6253248879 -0.7530627824 0.7614237362
H 2.9775497722 -0.5510712548 2.2468917352
O -3.4152742965 -1.6628731504 -0.3833874646
H -3.3663944139 -1.2917485345 0.5197267039
H -3.5064596647 -0.8821729467 -0.9491457861
37

Cl 2.8803300612 -0.3336349062 -1.4549459314
O -0.4394374769 0.1252107101 2.1359808644
H 0.5365018866 0.1829817336 2.1636090729
H -0.6622258990 0.7813219638 1.4480969106
O 1.5161292630 3.1698872520 0.8754942379
H 0.6272515787 2.8828999512 0.6202836088
H 2.0141855217 3.1517619487 0.0389955777
O -3.7030332481 1.2412607789 -0.2105650142
H -4.4951022074 1.6974012639 -0.4968423227
H -3.5400618218 0.5136934500 -0.8687591673
O -0.9148087032 1.8226170853 -0.0647938093
H -0.6501335281 1.0900410144 -0.6606393709
H -1.8789982454 1.8781924760 -0.1448592625
O -0.2519993429 -0.4532315363 -1.5348838404
H 0.6985526601 -0.3814350919 -1.7513458350
H -0.2649348483 -1.1393924618 -0.8370415605
O 2.4972816460 -2.5015646518 0.8500315449
H 2.6818329996 -1.8747947301 1.5573855904
H 2.7202655112 -1.9974037817 0.0446588647
O -3.3231904111 -0.4922398096 2.1143104767
H -2.4080647459 -0.3356198471 2.3861156516
H -3.5088289898 0.1954328649 1.4570905912
O -3.0845626576 -0.7766291994 -1.8400706411
H -2.1378583378 -0.6710994762 -2.0244041380
H -3.1282005564 -1.5263878471 -1.2082343574
O -3.0868717490 -2.6392020463 0.2254133133
H -2.1370107485 -2.8086305486 0.3238775191
H -3.2749987074 -2.0138477506 0.9480082465
O 2.7934239348 2.8084920198 -1.6520787590
H 2.0954351082 2.8898602029 -2.3051008257
H 2.9544988442 1.8450194869 -1.6000355373
O 2.2814338853 0.5432216064 1.6293189563
H 2.4605256213 0.2824041743 0.7072103283
H 2.1467009262 1.5070661204 1.5578619703
O -0.2980751344 -2.2461954265 0.6289787645
H -0.3996791287 -1.4899465871 1.2393085055
H 0.6397268904 -2.5048942400 0.7129068693
37

Cl -3.0392444098 2.1232117930 1.0966989239
O 0.0429276764 1.7265125605 0.7530929901
H -0.8558706097 2.0849992825 0.9035056024
H 0.0500218035 0.8900727626 1.2530205098
O 2.7798935211 1.6551344606 0.0282472186
H 2.5786927775 1.2587949038 -0.8377709273
H 1.9184863244 1.9851405102 0.3318129877
O 2.8490666802 -0.7143588765 1.5573524417
H 2.8713679029 0.1660524316 1.1344684158
H 1.9682696402 -0.7741060493 1.9557341403
O 2.2070625027 0.1711558622 -2.3617801287
H 2.2492000782 -0.6840337520 -1.8994328414
H 1.2566053694 0.3640636201 -2.4359604759
O 0.0109692658 -0.8830723877 1.9284713777
H -0.0560663580 -1.3806086591 1.0906364591
H -0.8951048877 -0.8530278111 2.2791516267
O 2.8176167469 -2.1417443301 -0.7824632737
H 3.7039777364 -2.0006023914 -1.1364588275
H 2.8426824604 -1.7110331870 0.1029974142
O -0.4702083458 0.4603577491 -1.7110941422
H -0.3184247253 0.9926092399 -0.9045726041
H -1.4465947552 0.4779589634 -1.8397478076
O -3.0188359097 -2.1223229535 -0.1772493962
H -2.0967643189 -2.3512514310 -0.3555966424
H -3.0035402826 -1.7150394925 0.7032337651
O -3.1967368351 0.3853572263 -1.6240431596
H -3.2793467414 -0.4912180381 -1.2105910879
H -3.2944763837 1.0069906928 -0.8795832266
O 4.9970600131 -0.2181462190 -1.7087220465
H 4.9681218047 0.2886252075 -0.8917759760
H 4.2581538131 0.1323799841 -2.2232286174
O -2.7638708542 -0.6316293086 2.2994641265
H -2.8829214510 0.2860814409 1.9342511483
H -3.3503436737 -0.6820252269 3.0557389853
O -0.1114765232 -2.0500649928 -0.6240807140
H 0.7739395025 -2.3725067107 -0.8365298676
H -0.2080671643 -1.1917657151 -1.0934316287
37

Cl 1.8407888430 0.2617454347 -2.8516227831
O -3.0454060142 -0.1924343156 3.3264210513
H -2.8282499351 0.4647782370 2.6438568280
H -2.1949977920 -0.3601919921 3.7451392051
O 0.7283229857 -1.4292269979 -0.4323872950
H 1.1016210354 -0.7838916400 0.1914216486
H 1.0151726296 -1.0859823310 -1.3002279705
O 3.9925185041 -0.7757830640 -0.7503374371
H 3.4655812359 -0.4173633705 -1.4918307621
H 3.7096487843 -1.6928309489 -0.7011754176
O -2.0409995444 -0.9469227673 -0.6274211285
H -2.5454425935 -1.5343217187 -0.0300402512
H -1.1082055675 -1.2189907738 -0.5395203067
O -3.1042057368 -2.4605736174 1.4740691661
H -2.2083019724 -2.7802607748 1.6833447364
H -3.2546793563 -1.7595401259 2.1291977120
O 2.3041372050 0.4993468921 1.1437335327
H 3.0268674170 0.0734544554 0.6486677128
H 2.1191871017 1.3068298445 0.6360099825
O -1.3992090360 1.0753383272 -2.6270793631
H -0.4894850922 0.8080734373 -2.8305699879
H -1.7657040377 0.3399364613 -2.1144318890
O -0.3146655443 -2.8699357304 1.9276371262
H 0.0765776284 -2.7936029372 1.0488451741
H -0.1911430897 -1.9769479834 2.3023590727
O -1.0379162118 3.0886478049 -0.6671612305
H -1.2473630099 2.4966663074 -1.4154511108
H -0.0709795053 3.0589194139 -0.6298670975
O 1.8201956640 2.5449575916 -0.7926417693
H 2.4935368433 3.1789394727 -1.0456283313
H 1.8166969379 1.8684097838 -1.5110449932
O -1.8501255650 1.1704878912 1.1662355303
H -1.9778659609 0.4796876674 0.4845361953
H -1.6029759351 1.9697232889 0.6583968043
O 0.0170051002 -0.1742997522 2.7593880769
H -0.5559957614 0.3685098935 2.1816423766
H 0.9154168865 0.0406242542 2.4694384477
37

Cl -2.8338826222 2.2762466404 1.0116337099
O -0.2872987711 2.7576779832 -0.5447423658
H -0.4056309021 3.6057948691 -0.9753142863
H -1.0935219650 2.6370266771 0.0192393604
O 1.9555253274 1.2182092481 0.0787349342
H 2.0053946550 0.7898782189 -0.8075250669
H 1.2963945242 1.9247776484 -0.0249265526
O 3.4345050784 -2.0256611511 1.2036777481
H 3.9030655959 -1.1784737581 1.1271141717
H 2.5758320547 -1.7886682225 1.5820253303
O 2.1135940913 -0.0107054568 -2.3666579128
H 2.3334848003 -0.9386171574 -2.1381205367
H 1.1802218794 -0.0265187253 -2.6189645838
O 0.8126491641 -0.8237123231 1.6313908601
H -0.0352573676 -0.5791941028 2.0399430669
H 1.1501035614 -0.0258001346 1.1802642050
O 2.5181997657 -2.6064763222 -1.4489726265
H 1.5654416165 -2.6707925757 -1.2692674936
H 2.9145916005 -2.5038786021 -0.5642235625
O -0.7928580593 0.3368341545 -2.1169189365
H -0.5914524464 1.1587741151 -1.6421058568
H -1.7616214958 0.2276773198 -1.9872722912
O -2.8648989267 -2.1267844897 0.3912670818
H -1.9949140775 -2.3019431734 -0.0062579017
H -2.6526854956 -1.5947458741 1.1720585079
O -3.4246946184 0.0895124299 -1.3372883331
H -3.3829588289 -0.7152244883 -0.7892166992
H -3.4138903127 0.8125996490 -0.6869282356
O 4.6001022448 0.5807550693 0.6564371971
H 4.9212126333 0.5014831911 -0.2449750484
H 3.7217624164 0.9929917062 0.5554967700
O -1.8530098037 -0.2418938514 2.4256028322
H -2.1541019224 0.5866329466 1.9761666409
H -2.1586645403 -0.1562294692 3.3302460658
O -0.1992584370 -2.0569069015 -0.6820021422
H 0.1665774687 -1.7109128634 0.1558989467
H -0.3737787324 -1.2491801488 -1.2027105899
37

Cl 1.7776616616 -0.7674118914 1.2669168174
O 0.1869070626 0.0106650779 -2.5761590554
H -0.0471912493 0.7020836222 -1.9438247086
H -0.6665239117 -0.2468689398 -2.9876311048
O -2.2730407851 -1.6423278290 0.7115740791
H -1.4459390204 -1.8202991041 0.2302235187
H -1.9787783634 -1.2604977237 1.5590388198
O -0.1966991957 1.4463446707 -0.0170015057
H 0.3425581255 0.7008323030 0.3180790773
H -0.4479048479 1.9190732257 0.7953331247
O 2.3235028115 2.2372827721 2.2871627407
H 2.4797606414 2.5633270988 1.3790250715
H 2.3569461431 1.2716550861 2.1788841839
O 2.3377239075 2.8904921688 -0.4656481136
H 1.4016415006 2.6439697880 -0.4647478810
H 2.7458736266 2.1252709107 -0.9103411348
O -2.3908076771 -0.7493689320 -3.2446439991
H -2.7197786642 -0.2147754231 -2.4971571261
H -2.4794382491 -1.6627239124 -2.9262007166
O -0.9671757283 -0.4621245553 2.9499553318
H -0.0888125956 -0.6905095808 2.6014981372
H -0.9481879247 0.5037639698 2.9811201926
O 0.0468552330 -2.2895141534 -0.9022366465
H 0.6982234708 -2.1355232060 -0.1983261853
H 0.1656989119 -1.5280372848 -1.5001379701
O -2.4711889883 -3.3010253475 -1.8085111400
H -1.5353482730 -3.2413969155 -1.5620670291
H -2.9200768761 -3.0223999687 -1.0021876441
O 2.9766816640 0.3385993170 -1.5689398255
H 2.2246772522 0.1365745573 -2.1410554592
H 2.7723006136 -0.1158526433 -0.7351667421
O -0.3322271981 2.4403720544 2.6095329708
H -0.5990879657 3.2688725116 3.0086098468
H 0.6600239996 2.4389272655 2.5867074290
O -2.9240199512 0.6208697242 -0.8238110390
H -2.0736128819 1.0423470292 -0.6345519324
H -2.8817938674 -0.1731391052 -0.2574324606
