40

Mg -0.2780858741 -0.1172348729 0.4262058691
O -2.9568889353 -0.6521931225 -2.3190959251
H -3.1716071627 -1.2845689769 -3.0125951348
H -3.6447202575 0.0199822522 -2.3653424981
O -0.9799822653 -3.7420339809 1.3137769178
H -1.1338251525 -4.6284900916 0.9709576189
H -1.0493397670 -3.8241310125 2.2706425434
O -1.9994610001 -1.2843522621 0.2815849242
H -2.5199685693 -1.2516664769 -0.5367500454
H -1.9312261524 -2.2064526279 0.5743655829
O -1.4684833051 1.5995365820 0.5821052646
H -1.0826655794 2.4352854850 0.2709081340
H -1.9648881202 1.7693590403 1.3969169653
O -0.2741464602 0.0805960868 -1.6486268493
H 0.2335555986 0.7704271752 -2.1153539645
H -1.1124083192 -0.0616528982 -2.1148809031
O 0.4021720008 3.4900768888 -0.3428577220
H 0.7198863939 3.3119336504 -1.2428762661
H 0.5030555046 4.4336359044 -0.1877715759
O -2.5612792206 1.3367937255 3.2222353472
H -3.4500370859 0.9763339791 3.3081568613
H -2.4894637566 2.0022863217 3.9146767445
O 3.2200746313 -2.2020282904 -1.2937663267
H 3.9225767305 -2.7068100729 -0.8688772417
H 3.1138708026 -2.5998422441 -2.1645442950
O 3.4981632220 0.6477937472 -1.1976312899
H 4.3945403536 0.9799026100 -1.0870647407
H 3.5724625608 -0.3114059809 -1.3368912048
O 1.4109535995 1.0768301972 0.6073452743
H 2.2431683626 0.8973387324 0.1336047748
H 1.2397382272 2.0286135788 0.4974888395
O 1.4402731463 2.0553518646 -2.5881883018
H 1.5438410169 2.3465964692 -3.4992520838
H 2.2904647706 1.6671158386 -2.3183741492
O 0.9316862559 -1.8201219730 0.4261390780
H 1.6480071065 -2.0324426716 -0.1930406732
H 0.5042311359 -2.6478724378 0.6982564578
O -0.4378348532 -0.3928696572 2.5149983175
H 0.3605464774 -0.3262350495 3.0467834633
H -1.1348457395 0.1110405041 2.9709592169
40

Mg -0.5038162246 -0.6094019461 0.2085293771
O 1.5766261057 2.7449496416 1.4475195460
H 1.2773391269 3.1806684560 0.6300741125
H 1.7827082044 3.4451195628 2.0750731692
O -2.2733930162 0.1007846629 -0.6428544371
H -3.1252759914 -0.2975020881 -0.4034813567
H -2.4215635322 1.0407681470 -0.8360674457
O 2.0938734440 -3.0845596521 -1.0321454155
H 2.5051032800 -3.9405187296 -1.1839151222
H 2.7016759415 -2.3990293949 -1.3550884838
O 3.2247105071 0.3830472411 1.2680044199
H 3.9557677660 0.3666632269 1.8936787693
H 2.8167808104 1.2634329155 1.3403127112
O -0.4561949029 0.9033986732 1.6516667208
H -0.8604640078 0.7736502480 2.5134328493
H 0.2359085209 1.5886872501 1.7351765624
O -4.3002811117 -1.6031602121 0.4660409926
H -5.0406880060 -1.3193350174 1.0127593326
H -4.6447035155 -2.3225683545 -0.0739270673
O 3.2031582247 -0.5002309546 -1.4184580072
H 3.8640764348 -0.2492418126 -2.0712418650
H 3.5196997543 -0.1812424944 -0.5549067253
O -1.7138404512 -1.6834505457 1.5455039352
H -1.3666310978 -2.4146492109 2.0640366447
H -2.6482303771 -1.8667546474 1.3482368654
O -0.4713078824 -2.1399801478 -1.2241475275
H 0.3589572161 -2.6379929834 -1.3545022712
H -0.8853027615 -2.0315190721 -2.0841733196
O -2.4682171176 2.9383158834 -1.2551802910
H -2.8146157304 3.0883134074 -2.1423319998
H -3.0244913923 3.4710023848 -0.6758714674
O 0.6660510700 0.5891470021 -1.0092146979
H 0.6252805443 1.5489693707 -1.1649353724
H 1.5254964660 0.2640042322 -1.3362527225
O 1.1537595841 -1.5235607061 1.0722435362
H 1.5688627055 -2.2585319807 0.5887609524
H 1.8802069330 -0.9331794891 1.3435530664
O 0.3786122040 3.3562152803 -1.0515510793
H 0.7494020977 3.9736359991 -1.6898716329
H -0.5881480178 3.4266075547 -1.1272183153
40

Mg -0.5287840530 -0.1886580740 0.6071821491
O 2.4789343113 1.5853827135 2.0740976406
H 2.7798407740 1.9482952346 1.2260704963
H 3.1151552961 1.8460285667 2.7463404039
O 1.4713678265 -0.7188508191 0.8635589538
H 2.0080168968 -0.8823634875 0.0668806691
H 2.0092144286 -0.1570476383 1.4456835315
O 2.8384504979 -0.7526008070 -1.5875773701
H 2.1705610562 -0.9592864794 -2.2652847658
H 3.6210500027 -1.2706952096 -1.7987885087
O 2.6806236096 1.9457096392 -0.7662565773
H 3.0178074218 1.1239797593 -1.1635301450
H 3.1204309926 2.6757525153 -1.2125859288
O -0.2541945166 1.2176727036 2.1096142992
H 0.6419050425 1.5661384651 2.2675198191
H -0.9038833775 1.9166723962 2.2790917296
O 0.5309570132 -1.3015015344 -3.1881493453
H 0.0872498154 -0.5146928606 -3.5508991742
H 0.5636972991 -1.9487185475 -3.8999043635
O -1.1224569163 -4.0851148455 0.7937879034
H -1.9274121823 -4.6128742735 0.7610119244
H -0.4085162688 -4.7147227474 0.9386588356
O 0.0263119685 1.1169986449 -0.9243842681
H 0.8982381481 1.5537417176 -0.9323580501
H -0.3995883496 1.2743898098 -1.7795618885
O -0.8216425964 -1.7122329907 -0.7674610858
H -0.8982233186 -2.6345888809 -0.4777186251
H -0.3964975162 -1.6939249098 -1.6446795724
O -2.6612847363 2.7388281676 2.1358994848
H -3.2011643971 2.7210276819 2.9333053425
H -2.7457419015 3.6338079776 1.7910978883
O -1.1865900771 -1.5798271812 2.0393193277
H -1.0539655962 -1.4447366244 2.9811271965
H -1.1483223473 -2.5350221609 1.8622118103
O -2.4992256492 0.5262926343 0.3880988370
H -2.7691635750 1.3013729079 0.9110353720
H -3.2466602075 -0.0768476146 0.3634157968
O -0.8861298037 1.1158816841 -3.6787366303
H -1.8235505316 1.0286258910 -3.8812283262
H -0.5567418202 1.7821608640 -4.2913922796
40

Mg -0.2613138746 0.1016871368 0.1167637903
O -1.8107530115 0.9206528188 -1.0206854794
H -2.0163586724 1.8537499407 -0.8482478406
H -2.6462496245 0.4646455323 -1.2169332061
O 3.2528090460 2.7434113351 0.0615566276
H 3.5537143001 3.3953171796 0.7046438453
H 3.5447710552 3.0777662860 -0.7934484081
O 0.4820182647 2.0155049463 0.4450089646
H 1.3817018747 2.3200788956 0.2459339927
H -0.1252219557 2.7664430308 0.3499320141
O -1.7864484639 3.6292712381 -0.1131265983
H -2.3245579180 3.8940811060 0.6401672518
H -1.8000150713 4.3804373009 -0.7154486290
O 3.0734079530 -1.7809950857 -1.3906559341
H 3.6123854540 -1.2466821184 -0.7816801315
H 3.6557485477 -2.0724034503 -2.0991224096
O -1.0676082802 -1.8040934725 -0.1677748389
H -1.8613707355 -2.0522959662 0.3343602065
H -0.4450466121 -2.5509249204 -0.1623594533
O -4.3167641170 -0.4723139578 -1.3289157546
H -5.1165466173 0.0549280234 -1.4317073739
H -4.3601764755 -1.1333060298 -2.0285815063
O -1.4823791128 0.3412435123 1.8210133549
H -2.2750265106 -0.2241819799 1.8539808004
H -1.1000615635 0.3619594587 2.7028037144
O 1.2622732894 -3.3264703726 0.1972770415
H 1.9672392389 -3.1300135142 -0.4402347251
H 1.3922761381 -4.2316213851 0.4948402608
O 0.8932746702 -0.1133242796 -1.6165067838
H 1.6531369062 -0.7241087136 -1.6966669586
H 0.5072059650 0.0011430081 -2.4885504339
O 3.9024396652 0.0144933384 0.6588526616
H 4.6545825151 -0.1304836350 1.2414159570
H 3.8863583990 0.9648430498 0.4550135652
O 1.2728353327 -0.7389249188 1.2334007860
H 1.3187812451 -1.7088837558 1.1673478326
H 2.1950219803 -0.4249597622 1.2139682009
O -3.4718015995 -1.5222753400 1.1942958866
H -4.0204674212 -1.2365608168 0.4458393763
H -4.0290241642 -2.0612733129 1.7636935774
40

Mg 0.0778867664 0.3399015029 -0.3980101915
O -0.2387710184 1.3981112151 1.3587884502
H -1.0447090441 1.9445829048 1.3635401768
H -0.2038138091 0.9637510696 2.2304661442
O 3.0456474612 -1.4009625270 -1.7909049515
H 3.5581655494 -2.1768657353 -2.0363546659
H 3.5367611486 -0.6266318924 -2.1114640664
O 1.5554208566 1.7482033468 -0.9039342739
H 1.8195126200 2.3533462042 -0.2045008272
H 2.3151813206 1.6516423824 -1.5043564679
O -3.0524077869 -0.2636417061 2.1875306863
H -3.8342688072 -0.7139618985 2.5215789437
H -2.3836104903 -0.2949619446 2.8937063946
O 3.8080728412 1.2383993015 -2.5759023633
H 3.7147604043 1.4430170033 -3.5127839031
H 4.6548317611 1.6183852666 -2.3169621967
O -1.4543967440 -1.0103587242 0.0338335427
H -2.1288437091 -0.8566135029 0.7212033719
H -1.8756894445 -1.4439647288 -0.7246874776
O -2.0376480798 -1.9814755566 -2.5980928605
H -2.1212008466 -2.9176000081 -2.8069350157
H -2.6991383924 -1.5387886344 -3.1399547615
O 1.5268707938 -0.8367841655 0.5365181733
H 1.4092839140 -1.4443356917 1.2833755296
H 2.2276319937 -1.1802968307 -0.0410210103
O 1.1249843208 -2.3199772828 2.9784808377
H 0.7434085414 -3.2042951062 2.9663517463
H 1.9321786952 -2.3996724046 3.4989007071
O -1.3815985257 1.5610768739 -1.3149381057
H -2.0768455917 1.9183090913 -0.7333795029
H -1.1511179100 2.2459004864 -1.9487269687
O -0.6152064907 -0.1505272394 3.6597659628
H -0.0497712266 -0.9400313645 3.6061898722
H -0.5438970235 0.1785394811 4.5612618543
O 0.4179873266 -0.6109737322 -2.2055236627
H 1.2557512833 -1.0958402914 -2.2997022340
H -0.3007016330 -1.1446216860 -2.5814673045
O -2.8436196771 2.2832998438 0.9464567527
H -3.3824890165 3.0557881348 1.1409016858
H -3.2353021650 1.5292201297 1.4173121430
40

Mg -0.3030196555 -0.3368309655 -0.4265155697
O 1.1152402742 3.3000019071 1.6612200613
H 1.2330234906 3.2080868874 2.6126587938
H 0.9736651374 4.2420470848 1.5158426362
O -0.7231416993 -2.2263349324 3.0319379967
H -0.6287929882 -3.1792111631 3.1329345859
H -0.9257586429 -1.8964087489 3.9132435501
O 0.1995248730 -2.1395435734 -1.3743810787
H 1.1294843276 -2.3463754573 -1.5793249359
H -0.3160607410 -2.9480536659 -1.4127298349
O -1.8609462503 -1.2714552986 0.6006486187
H -2.7990643074 -1.0452039612 0.4922516373
H -1.7285246883 -1.6255571896 1.4935624653
O -1.6763691034 0.0259981395 -1.9635440189
H -1.4322449440 -0.0855965772 -2.8860564322
H -2.2628643211 0.8013008805 -1.8949321087
O 3.0818996182 2.0575725770 -0.0328206869
H 3.7230403617 2.6580662836 -0.4257469689
H 2.5567655318 2.5834259360 0.5938385933
O -3.2646648846 1.9778485781 -0.8902631790
H -3.7276639559 2.7500936164 -1.2280210304
H -3.9296692215 1.3952228605 -0.4890962170
O 2.8963376195 -1.8538521883 -1.8297176031
H 3.4135194534 -1.6737640439 -1.0283085636
H 3.4925849024 -2.2350384889 -2.4808435181
O 3.6199474386 -0.6531204131 0.6660277628
H 3.6888476482 0.3053995142 0.5118591571
H 4.3449588864 -0.8932805397 1.2512047710
O -0.7611882466 1.5570307252 0.3067549157
H -0.2218313032 2.1557362167 0.8451280888
H -1.5888403321 1.9978191205 0.0581122527
O -4.5688460651 -0.3411527513 0.1895220069
H -5.0629475138 -0.8394763993 -0.4709110434
H -5.1537239523 -0.2877951426 0.9532194178
O 1.3243854317 0.4161803565 -1.4733852177
H 1.8795449878 1.1313342717 -1.1157246319
H 1.9350452986 -0.2274697171 -1.8708517538
O 0.9006203297 -0.7081858861 1.2359253602
H 1.8695518976 -0.8010912590 1.1673674170
H 0.5834112965 -1.2519693863 1.9728122556
40

Mg 0.2878820944 0.1166787102 -0.1264397781
O -0.9518728351 2.2388496889 2.7162745346
H -0.0716998122 2.4320939303 3.0786358687
H -1.5940919354 2.7117338527 3.2535289641
O -1.1802990511 0.0408134408 -1.6035336834
H -1.5463966234 0.8381304328 -1.9946577551
H -1.3652141747 -0.7134325183 -2.1982099519
O -1.5859310458 -3.6018286427 -0.4550370201
H -2.2648314713 -3.2655877297 0.1545466969
H -1.5536203705 -4.5559714505 -0.3337076919
O 1.8579799112 2.6032469679 2.7853311518
H 2.4453184282 2.7637432727 3.5308312728
H 2.0053949623 3.3248741111 2.1499565484
O -1.0813599877 -0.2311171962 1.4016944109
H -1.1937611877 0.4606768591 2.0746837158
H -1.8806216527 -0.7810237489 1.3859727809
O -3.2483926817 -2.1344746230 1.3505568672
H -4.1238062083 -1.8794613082 1.0397949779
H -3.3941397554 -2.5368584488 2.2140547180
O 1.3927247126 -1.9547271628 -3.0361379052
H 0.4979544853 -2.1750254941 -3.3415996948
H 2.0114945605 -2.4078876267 -3.6165811217
O 0.6452516340 -1.9163517881 -0.3388381326
H -0.0467263646 -2.5904861782 -0.2107915602
H 1.0967941001 -2.1513184420 -1.1682075188
O 1.7201996634 0.4443496154 -1.6364355834
H 1.6928750187 -0.2046151171 -2.3629337676
H 2.6459757431 0.5603360048 -1.4048984601
O 1.8253170670 4.3242220468 0.4972772972
H 1.4164268354 5.1939151537 0.5668796281
H 2.6372769656 4.4721884197 0.0009328005
O -0.0781825007 2.1574247837 0.0822024636
H 0.5616020782 2.8693042681 -0.0705479020
H -0.5583689764 2.3962736019 0.8954921209
O 1.8560906253 0.2807350537 1.2595426428
H 2.2089128619 -0.5033524588 1.6893315847
H 1.9501140263 1.0326216547 1.8771789600
O -1.4312006274 -2.3147880450 -2.9859526035
H -2.0312565804 -2.5154245806 -3.7108798360
H -1.6355557763 -2.9339406078 -2.2634728333
40

Mg -0.3855555586 -0.5011799208 -0.4084310727
O -2.0607919676 0.3685032311 -1.2967165277
H -2.2860259712 1.2689325871 -1.0009142825
H -2.8851829103 -0.1408406079 -1.3468789353
O -2.2537033470 2.7122904154 0.2021991056
H -1.4543662806 3.2625526776 0.1595830504
H -2.9955585587 3.3003311765 0.3704769034
O 0.8882686418 1.0332861430 -1.0064179872
H 0.7873078694 1.9590107377 -0.7138715854
H 1.7737907678 0.9361425665 -1.3878162829
O 0.4823431379 3.4882151612 0.2072556554
H 0.8276778350 4.3560805610 -0.0228691883
H 0.8796519796 3.2346753897 1.0588624712
O 3.7118405085 0.7445625531 -1.5873154393
H 4.2089740623 1.5156899808 -1.8809070068
H 4.0225047892 0.0194839177 -2.1399371290
O -1.5365133752 -2.1884364831 -0.0043259810
H -1.3220364371 -2.8035241384 0.7145715995
H -2.4853927441 -2.2307654442 -0.2016481624
O 1.4277575559 1.8979006678 2.3305651420
H 2.1989364911 1.3807015936 2.0370805830
H 1.5892614283 2.1445144992 3.2463222803
O -0.8392848146 0.5606028685 1.3295164451
H -0.1067247313 0.9463392465 1.8428955322
H -1.5069364856 1.2601322897 1.2400811005
O -0.1293140808 -3.6296811294 1.9673120243
H -0.3509765303 -3.5721812086 2.9023897504
H 0.1120628315 -4.5497804450 1.8175835244
O 0.1379446820 -1.3528469428 -2.2875746202
H -0.1396613450 -0.9131412079 -3.0972154707
H 0.1101173798 -2.2991859430 -2.4548458027
O 3.3474952529 0.1240812136 1.1743373895
H 3.6652485562 0.3737990568 0.2889649774
H 4.1212245448 -0.1612318263 1.6708733168
O 1.1448263854 -1.4962739161 0.5674821937
H 0.9554624540 -2.2408387364 1.1596372624
H 1.9660786173 -1.0592909585 0.8572376809
O -4.1067886113 -1.6334379839 -1.0448354166
H -4.4360076869 -2.1142008177 -1.8115614259
H -4.8799212950 -1.4807200823 -0.4915045105
40

Mg -0.2885632534 0.2354819491 0.0643239424
O 2.3029919978 2.9525610179 -0.4257833137
H 2.7541008568 3.7772139729 -0.2230099600
H 2.8413340019 2.4781789081 -1.0783743413
O 2.0450739130 -3.4217073025 -0.1415790317
H 2.1078327954 -3.8040293701 -1.0233276263
H 2.1792729283 -4.1596125720 0.4634184996
O -0.2432355070 -1.7948797782 0.5341155617
H 0.4491095069 -2.4055241214 0.2350538278
H -1.0924550143 -2.2663094301 0.5483769933
O -1.2459982342 0.6174966760 1.9065248438
H -0.7275513951 1.0589081327 2.5850301629
H -1.9088839710 0.0711118618 2.3611438090
O -2.1193557776 -0.0312348818 -0.8729632691
H -2.6646886275 0.7368657278 -1.1073955704
H -2.6898921835 -0.7573251964 -0.5705888380
O 3.6327727855 -1.0628059253 0.2755082555
H 3.2574896783 -1.9497147816 0.1427535498
H 4.4393953777 -1.1776232670 0.7874980271
O -3.0016625519 2.5911467109 -1.5125585497
H -3.6473385143 3.0975081667 -1.0089503950
H -3.1747668368 2.8065919685 -2.4349135455
O 3.2986768540 0.7241973853 -1.9197577404
H 3.8686454480 0.7240912301 -2.6949634455
H 3.6862026678 0.1006683499 -1.2816800432
O -3.2754215013 -1.0440693362 3.0702423465
H -3.0395360210 -1.5684125429 3.8432371795
H -4.0910579055 -0.5917649078 3.3115293996
O -0.3896132687 2.2502024830 -0.4320606101
H 0.4079710833 2.7754499374 -0.6034795318
H -1.1636454176 2.6656363300 -0.8389587118
O -3.0018838821 -2.2823480554 0.5201999917
H -3.5406407565 -3.0238392827 0.2286772432
H -3.3095134192 -2.0378062922 1.4082723243
O 0.7198985701 -0.2407718675 -1.7394242538
H 1.5949643320 0.1287174378 -1.9709522299
H 0.2287386922 -0.3764906280 -2.5536664545
O 1.5384895241 0.6633817894 0.9422849704
H 1.9103304289 1.5326260681 0.7060153937
H 2.2803550629 0.0326878329 0.9085158862
