40

Li 0.9994874717 -0.4117253441 -0.2394788236
O 0.2289846216 3.3044973826 0.3797925891
H 0.8333416333 3.2365892661 1.1418065103
H 0.1462436357 4.2371079037 0.1678996057
O 0.0978299903 -2.7632254087 -3.2075196880
H 0.2251062779 -3.4208768502 -3.8954628561
H 0.0824479099 -1.8753240548 -3.6442783752
O 2.0585869804 0.0306131431 1.3135192101
H 1.7684763972 -0.5246497177 2.0535951225
H 2.1580815028 0.9187268455 1.6872951095
O -0.0047353289 -0.2201943930 -4.0166239627
H -0.8974521689 0.0877056075 -3.8116787830
H 0.5623395488 0.3111275026 -3.4441409846
O -2.0251685988 -2.4111752563 -1.4735936448
H -1.3467152933 -2.7133639562 -2.1119124883
H -2.7168561130 -3.0772455283 -1.4638675643
O -2.2461204378 0.3111244436 -2.2105207548
H -3.0930209195 0.7599043633 -2.1556845186
H -2.3941009218 -0.6123188396 -1.9410920909
O -1.6402026117 1.4188585454 1.5683580340
H -1.4380857937 0.5889830127 1.1070313246
H -1.2004263078 2.1221668047 1.0683082573
O 1.7189268027 2.5614317627 2.6230506266
H 1.0648264928 2.2106873129 3.2592259581
H 2.3776662856 3.0447956726 3.1276391478
O 0.4271396288 -1.3649405694 3.1951520959
H 0.5671895328 -2.0423436995 3.8605601688
H 0.1131190802 -0.5654843214 3.6580333938
O 0.3054759720 1.0713230279 -1.3228879983
H -0.6386077776 0.9595567309 -1.5338482047
H 0.3881151630 1.9413551566 -0.8977091619
O 1.8201110244 -1.8489992586 -1.2312670395
H 1.3859401407 -2.3427181054 -1.9480151387
H 2.7530776797 -2.0682702892 -1.2467820417
O -0.3622762021 1.2240664077 3.8956148776
H -0.8663110128 1.5020857039 4.6644506582
H -0.9514834857 1.3329095043 3.1047748809
O -0.6765563789 -1.1257980229 0.6134856589
H -0.4756954756 -1.5163614447 1.4790927894
H -1.1990707958 -1.7539688428 0.0880037905
40

Li 0.1540409893 1.3009376797 1.0123626533
O 2.9870054236 -1.5921543671 0.8590641123
H 3.4546300414 -2.2984988502 1.3117496316
H 2.6635193687 -1.9625687696 0.0133688963
O -0.8337050578 -1.5863771918 -1.0595579425
H -1.0182162612 -1.9273121116 -0.1674847992
H -0.4977659135 -0.6694659229 -0.9394856362
O 3.9251213316 1.0003713936 0.3376572046
H 3.7926667725 0.0787654738 0.6237076677
H 4.8585755326 1.1998711509 0.4415447634
O -1.6092636618 -2.2285596434 1.6166137678
H -2.4379446080 -1.7145454701 1.6584044796
H -1.7722092536 -3.0688993877 2.0507662058
O -3.3562323866 -0.5363640945 -1.5297140623
H -3.9325547568 -0.9601324308 -2.1708939149
H -2.5101716278 -1.0327665723 -1.5356059012
O 0.0995572403 0.9883192400 -0.9683206171
H -0.5421674465 1.5491285042 -1.4290077593
H 0.9472321630 0.9683986647 -1.4759096356
O -3.6707156358 -0.4261401440 1.2667621084
H -4.5470300286 -0.3876435511 1.6578942913
H -3.7880302096 -0.4645071730 0.2994867369
O 0.5512610795 -0.4143043147 1.8232930430
H 1.3948857288 -0.8603981752 1.6560408215
H -0.1150621236 -1.1066334258 1.9450562955
O 1.6978216007 2.4483490560 1.2887836332
H 2.5667906723 2.0887599096 1.0423230197
H 1.8427766458 3.0726799210 2.0016593125
O -2.3961704788 2.1402818919 -1.5385613612
H -2.8824193838 1.3207005932 -1.7285719149
H -2.7719861612 2.8337809529 -2.0854096033
O 2.4604318598 0.5814644675 -2.1186360778
H 3.1297504103 0.8217440926 -1.4612223398
H 2.4680559415 -0.3839734279 -2.1627143011
O -1.7265848699 1.7797246050 1.2327764346
H -2.3871669916 1.1374049801 1.5237728332
H -2.0806965869 2.1352142994 0.4037392752
O 1.8417269066 -2.2696896224 -1.5769336981
H 0.8692721385 -2.1955163879 -1.5085245141
H 2.0260302600 -3.0174040450 -2.1505010775
40

Li 0.1816251802 1.1865779760 1.0891114430
O 2.8765057429 -1.8512947357 0.3388047024
H 3.3036884416 -2.6911095344 0.5224634091
H 2.5504725950 -1.8794931437 -0.5981906153
O -0.9968344702 -1.2930904392 -1.3211706382
H -0.4838502136 -1.0061361321 -0.5416224561
H -1.2967614984 -0.4791623977 -1.7594763062
O 3.9192062984 0.6821622836 0.4660568703
H 3.7133558925 -0.2754521868 0.5078675489
H 4.8555869363 0.7735703505 0.6594685480
O -1.8763941067 -1.5574721230 2.5262539145
H -2.0987622287 -2.0519049196 3.3182120095
H -2.4687520830 -1.8596605965 1.8144103692
O -3.2433994600 -1.8978099350 0.0968207024
H -3.7717221343 -2.6449321650 -0.1952643835
H -2.4646204919 -1.8428350746 -0.5047037731
O 0.2010298593 1.7717211241 -0.7449800566
H -0.5565387042 1.7716365034 -1.3480297371
H 1.0044104325 1.7212462770 -1.2871668405
O -3.8669110141 0.8389490054 -0.0481198377
H -4.7640003494 1.1489108031 0.0983284867
H -3.8809522087 -0.1335886736 0.0267199241
O 0.4051288876 -0.8228537700 1.0880858208
H 1.2559205199 -1.2944238575 1.0516731280
H -0.1724528336 -1.2678197681 1.7299800008
O 1.7957545609 1.8327929641 1.9560870923
H 2.6419571374 1.5467486905 1.5744594561
H 1.9353144952 2.6970420212 2.3466257186
O -2.1478549004 1.1824328199 -2.2007420686
H -2.4747357446 1.4672341379 -3.0569496693
H -2.8964966300 1.2108689017 -1.5771156300
O 2.6687600341 1.2179414675 -1.9985622005
H 3.2565627607 1.1566636401 -1.2236136061
H 3.1319549388 1.7342628161 -2.6625133050
O -1.6308321954 1.2088209750 1.7926364230
H -2.4028993476 1.3537835238 1.2283077017
H -1.8365510023 0.4032969654 2.2893793891
O 1.8567260143 -1.5725464334 -2.0986260824
H 2.0787685730 -0.6560571073 -2.3205356187
H 0.8902935016 -1.6263481633 -2.1072762604
40

Li -0.0234172166 0.0116281525 1.0701670952
O -3.4352917555 1.2333080024 -0.0549202928
H -2.8296031039 1.6226829350 -0.7368003362
H -4.2661320280 1.7116367663 -0.1080207625
O 2.8114359926 0.0324266690 -1.5510199732
H 3.0915079229 -0.7525521718 -1.0333396506
H 3.1820135111 -0.0601683774 -2.4323713198
O -1.0428664669 1.5750011578 1.5567434554
H -1.9668491988 1.5790223577 1.2695800228
H -0.6592385742 2.4049852768 1.2283059244
O -1.0335231602 -1.5778316930 1.7405954550
H -1.9180004555 -1.6300988582 1.3263711198
H -1.1673112962 -1.6116867029 2.6917490682
O 2.8059182883 2.3027426010 0.1112548138
H 3.6345174311 2.7837440558 0.1814482398
H 2.9294314582 1.6365702922 -0.5893957507
O -3.2673837219 -1.4762449052 0.1197924044
H -4.1161283626 -1.8928671769 0.2901715691
H -3.4386268610 -0.5116677254 0.0130915433
O 3.0823737241 -2.0239350158 0.2114098202
H 3.8188618914 -2.5976599244 0.4352653748
H 2.2757242990 -2.5914394333 0.1589970662
O -1.5042479683 2.1108227590 -1.6750697292
H -1.0002936250 2.8330917686 -1.2741832623
H -0.9171634723 1.3422645918 -1.5857813505
O -1.3535069290 -2.4244434706 -1.7060367244
H -1.6242125342 -2.6783365887 -2.5917532978
H -2.1665224139 -2.2178333849 -1.2107032301
O 1.8083622138 0.0701185441 1.6685309318
H 2.2696726908 0.8956023165 1.4653282979
H 2.3947727672 -0.6437286429 1.3719260223
O 0.7285929366 -3.3189009344 0.1978045639
H 0.1614899844 -3.3295364249 -0.5838974483
H 0.1755774387 -2.9152565689 0.8818497181
O 0.2904030445 3.6130775519 0.1122223973
H 1.2065099859 3.2855421529 0.0644922496
H 0.3450449489 4.5563011565 0.2830524614
O 0.0640297571 -0.1644030286 -0.9456987469
H 0.9798273699 -0.1217440743 -1.2747458323
H -0.3452753471 -0.9557811158 -1.3436762827
40

Li 0.1557179856 1.6164930286 0.9989942352
O 2.4130810183 -1.8569655014 0.3537812972
H 2.5994361932 -2.7191545926 0.7339424417
H 2.3095989802 -1.9858022173 -0.6144522365
O -0.8374327955 -1.4066378931 -1.7067128154
H -0.0258709829 -1.6306492211 -2.1896371686
H -0.5138192129 -0.9803072657 -0.8940983025
O 3.8295029325 0.5403578236 0.5817618676
H 3.5379050237 -0.3891197128 0.5991592345
H 4.7817689035 0.5439487441 0.7034629665
O -2.2680895427 -1.6344521643 1.7707168503
H -2.3913937873 -2.0596127695 2.6227054103
H -2.3586918897 -2.3371226561 1.0802571464
O -2.2480553073 -3.3090788235 -0.2924358023
H -2.9571891075 -3.7950732769 -0.7176025799
H -1.8012794033 -2.7799280925 -0.9803808539
O -0.0463965186 2.2609521538 -0.8696325802
H -0.8925001287 1.8772120477 -1.2279718175
H -0.0725911815 3.2007997229 -1.0651192033
O -3.5296614555 0.6813387979 0.9429299709
H -4.4784034547 0.7694585485 1.0618040017
H -3.2724342124 -0.1958744930 1.2889294307
O 0.0637098971 -0.3690989128 0.8242450711
H 0.8588365294 -0.9319500698 0.8473304967
H -0.6313861480 -0.8190496829 1.3393126105
O 1.8682947064 2.1109795954 1.7337483900
H 2.6682248229 1.6266374931 1.4588778848
H 2.1587531233 2.9228420033 2.1519221471
O -2.2664423172 1.0696175428 -1.6597910492
H -1.9937751956 0.1931215804 -1.9697288243
H -2.8473749359 0.9167981066 -0.8997874970
O 2.2837573785 0.9260998743 -1.8724866877
H 2.9164049786 1.0337574915 -1.1500401968
H 1.4964123487 1.4382410904 -1.6265716110
O -1.4234426083 2.1492262498 1.9815878868
H -2.2836843621 1.7785577228 1.7132358764
H -1.5250613990 2.4932698735 2.8700882277
O 1.9205975942 -1.6674516897 -2.3287096956
H 2.3911016601 -2.0281229531 -3.0837065409
H 2.0915061870 -0.6931202424 -2.3080374989
40

Li 0.2420672629 1.4058230520 1.0750692964
O 2.4876007745 -1.7487995255 0.4535997029
H 2.8323108127 -2.6105611005 0.6998352213
H 2.2806839408 -1.7828609746 -0.5211173904
O -0.9152160925 -1.2705883490 -1.5625079382
H -0.5933956584 -0.9417699797 -0.7027112482
H -1.4446580900 -0.5373883180 -1.9137578591
O 3.9082183493 0.5983217246 0.3965180106
H 3.5679682328 -0.3168353579 0.4907103915
H 4.8556581363 0.5657742688 0.5502945191
O -2.4703637837 -1.6837795301 1.7905618319
H -2.7759723117 -2.0756292680 2.6120586060
H -2.5932618828 -2.3571432536 1.0784921857
O -2.6466490039 -3.1190951731 -0.4364304944
H -2.6199065249 -4.0423093992 -0.6929917103
H -2.0387902762 -2.6284085673 -1.0201998453
O 0.2664716875 1.9036635179 -0.7888323704
H -0.5476040072 1.8038561591 -1.3022989964
H 1.0213027396 1.7667875832 -1.3822491077
O -3.4771494363 0.7014853670 0.8282481888
H -4.4147452175 0.8272645324 0.9951509539
H -3.2469602778 -0.1827117557 1.1846605646
O 0.0031406989 -0.5861696658 1.0526550420
H 0.8226648619 -1.1120438466 1.0793365935
H -0.6928531481 -1.0563917941 1.5419456089
O 1.9287846275 1.8626650162 1.9002880278
H 2.7535285511 1.5393362800 1.4990124208
H 2.1110603891 2.0406017147 2.8240805587
O -2.3432660213 1.1751187886 -1.7428228798
H -2.9232963410 1.5714037860 -2.3970995361
H -2.8676103568 1.0561411949 -0.9309939224
O 2.7001201423 1.2272052383 -2.0831067408
H 3.2780816600 1.1474969067 -1.3036400262
H 3.1710436073 1.7604138306 -2.7281001002
O -1.3391649205 2.1233765092 1.9432224354
H -2.1967200820 1.7758432451 1.6436489579
H -1.4619909385 3.0582474409 2.1185674874
O 1.8609211328 -1.5392307352 -2.1031822677
H 0.8934556025 -1.5121363024 -2.1820883991
H 2.1672079121 -0.6577031560 -2.3627557925
40

Li 0.1655616959 1.9099455731 1.0532918348
O 1.6928496126 -2.0117950264 0.0682564996
H 1.0753250545 -2.7279054903 0.2736982317
H 1.7910182513 -2.0129495914 -0.9031333337
O -1.0276543532 -1.7398974575 -2.0517458750
H -0.1378623551 -1.6250229772 -2.4247652953
H -1.3865856308 -0.8489682444 -1.9302256825
O 3.4355940695 -0.0173815413 0.9067883234
H 2.9524951064 -0.8579697440 0.8099038471
H 4.3412893087 -0.2428484134 1.1320320453
O -2.1303566712 -1.6328837796 1.9156310578
H -2.2498455293 -2.0103829631 2.7899857864
H -1.8078711175 -2.3533486684 1.3267768577
O -0.9408251678 -3.2727608421 0.1234584659
H -1.2238632277 -4.1682173946 -0.0772229217
H -1.0262243468 -2.7521070108 -0.7176931102
O 0.0389769370 2.4347297709 -0.8898969876
H -0.7444123333 1.9661783067 -1.2444189824
H -0.0264252934 3.3466347797 -1.1831829239
O -3.3826950267 0.5914286306 0.9278434147
H -4.3376610029 0.6172415238 1.0287431684
H -3.0824034044 -0.2701561183 1.2866381049
O -0.0628008146 0.0178090656 0.8666098051
H 0.5589202544 -0.6369228387 0.4982531430
H -0.6685035093 -0.4867099186 1.4289357335
O 1.9382627040 2.1798616853 1.7409017790
H 2.5442766857 1.4278345362 1.6091150586
H 2.4658028721 2.9239412581 2.0339189984
O -2.1712932029 0.9158039633 -1.5925343863
H -2.8064031743 1.1394629732 -2.2781199642
H -2.6773346383 0.8062079376 -0.7644248068
O 2.4236497519 0.9518905477 -1.6811251351
H 2.9131397696 0.7930202613 -0.8619289355
H 1.6794058729 1.5252138750 -1.4471405899
O -1.4976897392 2.4542822221 1.9076291954
H -2.2793995096 1.9172003640 1.6947990581
H -1.6905370154 2.9413085428 2.7100731106
O 1.7228278930 -1.4482659746 -2.6407751278
H 2.2194667070 -1.7590736898 -3.4006005998
H 2.0176728653 -0.5280036971 -2.4445620881
40

Li 0.4018322609 0.3860184111 2.0099099272
O 3.4161936753 -0.3881778551 -0.1302567274
H 3.0041609454 0.2325738644 0.4886857109
H 3.1193311968 -1.2690979045 0.1346848182
O 0.4345137433 -1.5508975229 -1.7421997472
H -0.3899274621 -1.5341990372 -2.2493270147
H 1.0922039978 -1.0099896353 -2.2256112188
O 1.1433057402 2.3381426030 -1.2804345473
H 1.5647889823 1.7271376302 -1.9063067541
H 0.2062449808 2.3731258432 -1.5137863441
O -3.2092634618 -1.2333949231 0.1545819153
H -3.1007668661 -1.2419121614 -0.8149422241
H -3.6771670967 -2.0355777400 0.3980807118
O -2.3018062307 -0.8048417063 -2.4555738365
H -2.1664164185 0.1496722901 -2.2869259973
H -2.7639260862 -0.8794266796 -3.2943971847
O -0.5804073814 -0.2609517729 0.4359767066
H -1.3949028298 -0.7701145643 0.5807492389
H -0.1279616121 -0.7075015362 -0.3128652868
O -3.3352080520 1.3684919855 1.2658745812
H -4.1759089416 1.7408193648 1.5431136630
H -3.5254002948 0.4759443754 0.9309716192
O 1.2813507642 -1.2448102651 2.6080397032
H 1.4387437981 -1.9209976615 1.9267685291
H 1.7958305676 -1.4933959713 3.3775225918
O 1.7300839374 1.6040039753 1.2024446808
H 1.4947358009 1.9451209584 0.2995629988
H 2.1498049976 2.3326059680 1.6655376217
O -1.6721508739 1.6367971683 -1.3187873401
H -1.3090009789 1.1347696916 -0.5646354838
H -2.3820477428 2.1643269750 -0.9384158858
O 2.4213583411 0.1521718161 -2.5553550195
H 3.0288493714 0.1493489383 -3.2984716049
H 2.9442722540 -0.0371132690 -1.7391506226
O -1.0915664353 1.1877788346 2.9425966806
H -1.9253695837 1.3266010256 2.4567051887
H -1.2439577897 1.4532884176 3.8503307132
O 1.8410577778 -2.8183146558 0.3336990801
H 1.2977095787 -2.6352810307 -0.4521532036
H 2.1112465118 -3.7380001411 0.2810911374
40

Li 0.7758209982 0.6560012348 -0.4095457876
O 0.9513629176 -2.3334403578 -2.5833936918
H -0.0234737804 -2.3489413624 -2.4890270196
H 1.1576434016 -2.8390481681 -3.3740884471
O -1.7140629862 -1.8461846298 -2.1205422968
H -2.4806326111 -2.4027664898 -2.2753353480
H -1.9013788721 -0.9512123525 -2.5020846756
O 0.1947036900 2.4274003324 0.0580086161
H -0.6677683456 2.7091451320 -0.2826963945
H 0.1703976691 2.5924229485 1.0121466527
O 0.6501006732 -2.1213383352 2.1425218800
H 0.0684404258 -1.7043678668 1.4863850388
H 1.3059205040 -2.5801968424 1.6008483010
O -1.8236491262 0.6972734452 -2.8823601077
H -0.8800732166 0.8941622821 -2.9425705653
H -2.1779574040 1.3249872480 -2.2332204316
O -2.5438292457 2.5171989306 -0.7494224184
H -3.1531192079 3.2458641385 -0.8919759537
H -2.7822326711 2.1021869241 0.0966978975
O 2.4582738160 -2.6485193074 -0.1467853949
H 1.9724966966 -2.7027848080 -0.9867230844
H 3.2050277528 -3.2471918756 -0.2253514999
O -2.4386922573 1.0746117133 1.6662209271
H -3.1231373888 0.7282475362 2.2443698153
H -1.7491749911 1.4648471505 2.2417193696
O 1.6484512013 0.1098392002 3.2478570909
H 2.1409629183 -0.0131906718 4.0627852387
H 1.2931329940 -0.7751369047 2.9847588128
O -0.7316077434 -0.5821210313 0.1548929785
H -1.4239110801 -0.0929925083 0.6359717378
H -1.1859056017 -1.1159153441 -0.5221386218
O 1.0739415102 0.4366237854 -2.3639664392
H 1.8263244080 0.9197601965 -2.7160727901
H 1.1944315605 -0.5013276569 -2.6053361446
O -0.1934424920 2.1094744354 2.8911198719
H 0.4651247417 1.4208058329 3.1303827743
H -0.1625545683 2.7757711354 3.5819568520
O 2.4095506040 0.1343626655 0.4656539244
H 2.6363695646 -0.7958164472 0.3055245281
H 2.4411480418 0.2503638743 1.4263098271
40

Li 0.8376400959 -1.0506835540 -0.6865208813
O -2.1472953378 0.5906768959 1.2798374077
H -1.4883684593 1.1353734440 1.7377956536
H -2.6059214067 1.1828041355 0.6652701182
O 0.0111120402 0.7066590119 -3.9611375942
H 0.2443641553 1.1259723318 -4.7927595406
H 0.1064823810 1.3879694889 -3.2477343529
O 1.4561192199 0.6086538912 0.2859889809
H 2.3431652397 0.4558059863 0.6352004555
H 0.9776213067 1.0222088220 1.0306510853
O 0.1332777455 2.2541142020 -1.8034930111
H -0.7620118636 2.3064772782 -1.4342310445
H 0.6891904565 1.8345945233 -1.1326904179
O -2.4642048490 -0.0629563287 -2.9937942856
H -1.6952368030 0.1547644938 -3.5552671559
H -3.1061570883 -0.5149107713 -3.5463388482
O -2.6944140554 2.0410916101 -1.1386705074
H -3.2935228493 2.7671299810 -1.3295119082
H -2.8283578377 1.3778307359 -1.8394253243
O -0.7812827437 -1.7541841321 2.5031627904
H -0.3437779440 -2.1281720546 1.7279980245
H -1.5411427910 -1.2575603417 2.1747947926
O 0.1684220152 1.7383940329 2.4905388644
H 0.4516145378 1.1517254970 3.2194646293
H 0.3163194443 2.6439891297 2.7732284411
O 3.0716878341 -0.9213477388 2.2335665217
H 3.9550212465 -1.0731347041 2.5773472096
H 2.4930991475 -0.7404728302 2.9988481041
O -1.0608781235 -0.9987145857 -0.6892591681
H -1.5977444995 -0.8938292078 -1.4885388269
H -1.4767324412 -0.4392922526 -0.0043050291
O 1.4838735043 -1.1270920871 -2.4977143263
H 1.0610087104 -0.5654666433 -3.1741592208
H 2.2312975045 -1.5598253125 -2.9122210723
O 0.9688513309 -0.4076051827 3.9942454556
H 0.9157577273 -0.5791469419 4.9375187036
H 0.2862310457 -0.9724632279 3.5534088771
O 1.4760320000 -2.4206090193 0.5848125333
H 2.1568106779 -2.0830021573 1.2003345088
H 1.6541375385 -3.3503092324 0.4290945929
