40

Ca -0.0737643182 0.0792447633 0.5963661654
O 2.7809431993 -1.9222709728 3.2962242335
H 2.6207366161 -2.7093192824 3.8267190249
H 3.6910249430 -1.6695052458 3.4817269446
O 2.0760699524 -2.7963206235 -1.8797128015
H 1.6294998515 -3.6232647360 -2.0885755675
H 2.9606643007 -2.8829675014 -2.2491366488
O 0.7827390185 0.0221044625 2.8607410213
H 0.2564106080 0.4121578837 3.5637612249
H 1.4565823867 -0.5497759410 3.2603377667
O -1.8321894408 0.8205408568 2.1941413501
H -2.2786740137 1.6298655347 1.9279097390
H -2.5344357973 0.1846807488 2.4081791774
O 1.6463529508 -1.6038972020 0.6738756276
H 2.1294991766 -1.8777710344 1.4678510116
H 1.9208986786 -2.1722893072 -0.0600671865
O -3.6496767422 -1.4029915693 2.3723508003
H -3.6040801367 -2.0263715326 3.1044968001
H -4.5903338542 -1.2685155500 2.2170708754
O 1.2218144449 2.0873875425 0.5196511342
H 1.8324457340 2.4107157193 1.1861387729
H 1.0244152743 2.8207671060 -0.0904527132
O 0.2610065244 3.6468368834 -1.5476066527
H 0.7091119432 3.3129025978 -2.3404952570
H 0.1462953300 4.5953055666 -1.6566782250
O -2.3388560143 -0.5212229658 -2.3974711064
H -2.9163916413 -0.7413974755 -3.1340443441
H -1.4275565738 -0.6499707519 -2.6920208741
O -1.4786798512 1.5953776149 -0.6993030944
H -1.1303548221 2.4138127192 -1.0865832285
H -2.0302837925 1.1633918823 -1.3677106440
O 1.5295422005 1.9176202218 -3.4435460513
H 1.2393776465 1.9315363692 -4.3620413341
H 2.4849376215 2.0340250296 -3.4823048719
O -1.7938192205 -1.5280555501 0.1504723290
H -2.2180973165 -1.4148057934 -0.7158869738
H -2.4976014583 -1.6936074263 0.7955165824
O 0.5302636750 -0.3723359410 -1.8522706691
H 0.9069365949 0.3588959839 -2.3686629306
H 1.0942590021 -1.1468215396 -2.0153108227
40

Ca 0.1575831853 -0.6556619898 -0.7578667532
O 3.9190375456 -0.4609501511 1.2585320326
H 4.7254921432 -0.7779247855 1.6782811872
H 3.4111486592 0.0080408557 1.9397258229
O 1.8109187884 -1.9488664929 0.3452150079
H 1.8233383989 -2.9042290122 0.4464303257
H 2.6628800982 -1.6057422142 0.6799448838
O 1.2298676752 1.4404901400 -0.1084937299
H 1.4075273832 1.4674442875 0.8518476720
H 2.1016575910 1.5360871928 -0.5403378608
O -2.5556296477 1.9425317017 1.2711511413
H -2.8598762436 2.4673424168 2.0182592347
H -2.1444730789 2.5634607641 0.6413308991
O -0.8606868334 -0.2725749232 1.4324823153
H -1.4695752145 -1.0001413912 1.6519417573
H -1.4174664200 0.5329102136 1.4761889758
O 1.6783911702 0.8381425180 2.5632443834
H 0.8984729591 0.2711565906 2.6499459112
H 1.7245780314 1.3652315599 3.3674767217
O -1.1177770382 -2.6468718073 -0.8719646455
H -1.2267193291 -3.3531126205 -1.5140458740
H -1.8476492100 -2.7180218215 -0.2226363937
O -1.0787603041 3.1443473320 -0.7901699132
H -1.1265857821 4.0296277826 -1.1642773674
H -0.1461158760 2.9580510616 -0.6104070460
O 1.6373487879 -0.3898504644 -2.5947314560
H 2.5205503537 -0.0380081375 -2.3869551523
H 1.5974132162 -0.5405466207 -3.5427324018
O -2.9161232085 -2.1819482217 1.1121500593
H -3.4080740354 -2.7940023913 1.6678870850
H -3.5552434682 -1.5522665737 0.7301500892
O -4.0601688942 0.0112445797 -0.2047650571
H -4.9674162140 0.0951165899 -0.5154837316
H -3.8797716614 0.7810787482 0.3597442159
O -1.6695941350 0.5255712460 -1.6412532248
H -1.6242356026 1.4952088492 -1.6492671531
H -2.5827088881 0.2945202062 -1.3975074601
O 3.7013200001 0.9390293440 -1.2357511696
H 4.4032525043 1.4794248553 -1.6118652896
H 4.0786690655 0.4787206430 -0.4675837992
40

Ca 0.1920023083 -0.6543564844 -0.4587444922
O 4.8330473131 -1.2114475219 0.0856906789
H 5.2059149663 -1.8945292212 -0.4823784774
H 5.4781002714 -1.0968800800 0.7922338067
O 2.0461145813 -1.2640691332 0.8959194766
H 2.0569064698 -0.7870933599 1.7407446728
H 2.9684942391 -1.4620824572 0.6721391920
O 1.1475158479 1.5758624946 0.0782429013
H 1.2804839866 1.5692240987 1.0443083789
H 2.0409042737 1.6043921451 -0.3103522156
O -2.8201457496 1.9653738750 1.0945256451
H -3.1993251783 2.5068925463 1.7938552440
H -2.3373640487 2.5691263764 0.4992778779
O -1.1500760775 -0.2138461383 1.5411732054
H -1.7735693496 -0.9459866075 1.6994363275
H -1.7198842221 0.5820944464 1.4746370018
O 1.2539178065 0.7071201259 2.7582293932
H 0.3455196796 0.3890871967 2.8606356626
H 1.5322117542 1.0473284239 3.6141249874
O -0.9816583332 -2.6916059623 -0.5422547733
H -0.8353052635 -3.5482531337 -0.9517097080
H -1.8088028928 -2.7510664542 -0.0226720172
O -1.1244372608 3.1163803017 -0.8049758965
H -1.1493330351 3.9913934876 -1.2041792400
H -0.2092701505 2.9495424322 -0.5322042347
O 1.6267142210 -0.5616035202 -2.3301468926
H 2.4322689435 -0.0200381221 -2.2291141722
H 1.5028140246 -0.7337003830 -3.2673841643
O -3.1174004546 -2.1569349317 1.0673396423
H -3.6702236755 -2.7415000929 1.5946734113
H -3.7086459781 -1.5631995650 0.5687635362
O -4.1080582804 -0.0362098927 -0.4685396316
H -4.9681393623 0.0244704915 -0.8965246257
H -4.0078890547 0.7570119299 0.0837064664
O -1.5487551062 0.4346702389 -1.6072731847
H -1.5205468521 1.4036656808 -1.6526620062
H -2.4807226315 0.1951363884 -1.4650835646
O 3.6214127765 0.9959924175 -1.2585895821
H 4.1967312284 1.6376064618 -1.6873001838
H 4.2026770914 0.3633386686 -0.8001067662
40

Ca -0.4252572841 0.0431743310 -0.0892986842
O 3.8277455534 -1.3062944036 0.4023971667
H 4.5385581662 -1.9463150330 0.3007015839
H 3.8560550070 -0.9974054554 1.3243682609
O 1.0877013491 -1.8024496946 -0.1199101766
H 2.0501818222 -1.7657288169 0.0130041199
H 0.8726739465 -2.6346110714 -0.5660367660
O 1.4301906697 1.0581032848 1.0271679758
H 1.8996177822 0.7771841472 1.8257378796
H 2.1235503453 1.3103501842 0.3923506041
O -2.9171757893 2.9391374133 1.7222265038
H -3.8584378736 3.1349850385 1.7710014665
H -2.4919926986 3.6177501162 2.2567478597
O -1.9469747266 0.2219033411 1.7509835567
H -2.6564377121 -0.4301977829 1.8598703126
H -2.3240931567 1.0881863807 1.9702971913
O 3.3812529959 -0.0565488476 2.9274969909
H 3.1368147204 -0.6014445261 3.6826697391
H 4.0282514594 0.5699113207 3.2690379803
O -1.8736880479 -1.7817479126 -0.5797483217
H -1.5391910863 -2.6127093572 -0.9524018119
H -2.6446533396 -1.9936360417 -0.0317355899
O -0.8007261311 2.9392092129 -3.2238862270
H -1.3698187353 2.7572517939 -3.9787911556
H -0.4195667366 3.8060042003 -3.3962175886
O 0.6742590304 0.7403720786 -2.0809123269
H 1.6416665391 0.8108828502 -2.0288790194
H 0.3550657968 1.4724143006 -2.6299574034
O -3.8588327538 -1.9202339519 1.4851960582
H -3.8643486985 -2.6349474615 2.1301055244
H -4.7851625926 -1.7562723737 1.2808467102
O -0.2570502507 -3.9405730343 -1.5127887862
H -0.1433545281 -4.0482960323 -2.4626068975
H -0.3167639132 -4.8344031591 -1.1607884895
O -1.6165723432 2.0241710627 -0.6552023077
H -1.4933883953 2.5417488039 -1.4652916947
H -2.1462844341 2.5367376226 -0.0271887693
O 3.3007917925 1.0216940360 -1.0789092338
H 4.0068016549 1.5795888377 -1.4173087671
H 3.7170163903 0.2078513093 -0.7455294018
40

Ca -0.3519884706 0.0061178629 -0.0755800947
O 2.3311483290 -0.1665760949 2.6500135805
H 2.7573879336 -0.4999702740 3.4453220007
H 2.8075300952 0.6373147694 2.3808319159
O 1.4751296905 -1.5578881510 0.3576101446
H 1.9290143710 -1.3159516099 1.1853501956
H 2.1281317267 -1.4496774587 -0.3571470264
O 1.4625081636 1.3737171102 -0.7714622219
H 2.0062156399 1.8193195551 -0.0965754014
H 2.0781552157 0.9165326635 -1.3648360297
O 0.6896774969 3.7789027552 2.6458590863
H 0.6945244171 4.0477317033 3.5708923276
H 0.3511598182 4.5408928932 2.1640077084
O -0.1079198811 1.0706273992 2.0260257403
H 0.5834444865 0.6224071942 2.5437249645
H -0.0506935807 2.0071614722 2.2730268485
O 2.8928156851 2.3759948019 1.4731783082
H 2.3097772375 3.0097509554 1.9253259723
H 3.7462523819 2.8108254555 1.3786417509
O -1.7631852951 -1.6864894457 0.7850391661
H -2.7112869788 -1.5482045701 0.9244590882
H -1.6129508683 -2.5915742631 0.4790826339
O -4.3321711287 -0.3831936530 0.8111533907
H -4.5926384429 0.0452635882 1.6333342449
H -5.1423290986 -0.7745005196 0.4680364882
O -0.2389314411 -1.1783098608 -2.1995358122
H -0.8876215158 -0.9101720324 -2.8719950339
H -0.3590545659 -2.1268397965 -2.0125097961
O -0.3008465788 -3.5803656282 -0.7428833696
H -0.3340756085 -4.5217756547 -0.9387458939
H 0.5085725483 -3.4293534794 -0.2365884790
O -2.2359609418 0.2025509843 -3.7122167323
H -2.9612040978 -0.2393192652 -4.1665634454
H -1.9263057948 0.8711337045 -4.3328331061
O -2.3932276116 0.8976440988 -0.8967663414
H -3.2043966036 0.6338891731 -0.4320597019
H -2.5765774947 0.8502423814 -1.8472740082
O 2.7036261358 -0.8336116395 -2.0779030437
H 3.5427435968 -1.0139389387 -2.5131674740
H 2.0088698617 -1.0957714592 -2.6940603123
40

Ca 0.1122559006 0.2006767905 0.2597524146
O -0.0546772553 -1.9510615323 -3.4794122223
H 0.4764395924 -1.8934714521 -4.2807344348
H -0.7102435274 -2.6330811639 -3.6592361152
O -3.5980945430 0.2354446115 1.6005108043
H -4.4382377444 0.1461583407 2.0591602354
H -3.7345478087 0.8263652884 0.8411307612
O 3.7089162806 -1.1323341347 0.5735148849
H 3.3826711822 -1.6803028665 -0.1507003726
H 4.6226246332 -1.3899220138 0.7300279316
O 1.1279867346 -1.8202743944 -0.7962126789
H 0.8298799371 -2.6002714738 -0.2943197501
H 0.8946770583 -1.9935844036 -1.7208993438
O 2.2514149780 1.1746890350 -0.0813058094
H 3.0504422737 0.6536206113 0.0866348804
H 2.4827782407 2.1114652151 -0.1655865989
O -1.6679399023 -1.3941363613 0.4533699949
H -1.4381770630 -2.3031997665 0.6946630846
H -2.5036874885 -1.1568848082 0.8865047909
O 2.1148281814 4.0274917515 -0.3253272910
H 2.4171241823 4.4720707789 -1.1241652996
H 2.3870719090 4.6009515951 0.3986645801
O -0.8063240440 0.3632468947 -2.0388614176
H -0.4993773248 1.1571874564 -2.4879576252
H -0.6822537942 -0.3776678785 -2.6584066398
O -0.0862832198 -3.7262984718 0.9180406336
H -0.2710091953 -4.6612818399 0.7824860913
H 0.3195643493 -3.6605466708 1.7887789188
O 1.3101172355 -1.0418276432 1.9965927993
H 1.2236272610 -0.8043507710 2.9240899647
H 2.2585666408 -1.1471064508 1.8042934093
O -3.1249367073 1.8101486518 -0.7235085438
H -2.7975565573 1.2108189295 -1.4070902701
H -3.8344028168 2.3167126088 -1.1322176533
O -1.0192884589 0.9414416253 2.2828809686
H -0.9100164726 1.7732094777 2.7506543058
H -1.9735211491 0.7373524839 2.3019725015
O -0.3041471343 2.5460210242 -0.3007429065
H -1.2077355293 2.8809226676 -0.3366986679
H 0.3212077303 3.2869416275 -0.3123506694
40

Ca -0.1585963723 -0.5030667519 -0.3595069733
O 1.5178666798 -0.6173375035 3.2632250641
H 1.7333526956 -0.8792984565 4.1629665966
H 1.9721837326 0.2240577601 3.0981044605
O 0.9541938598 -2.1332547522 0.9448818586
H 1.3145841656 -1.8844326121 1.8113559348
H 0.6407433484 -3.0491641510 0.9852658755
O 1.4711048465 1.3202047614 -0.4035521256
H 1.8392329210 1.5857156105 0.4659283040
H 2.2103913245 1.2559678456 -1.0312353398
O -0.4954725854 3.0782869717 2.2273791068
H -0.9436845923 3.6466116856 2.8608111683
H -0.6849397892 3.4281303816 1.3391511709
O -0.6715201786 0.3193977413 1.7935980327
H -0.1539523998 -0.0591133442 2.5236227016
H -0.8452799735 1.2445570469 2.0375820223
O 2.1065641466 2.0176441054 2.1999964642
H 1.3035254089 2.5376603525 2.3928841317
H 2.8566069825 2.5638932344 2.4552921044
O -1.6717351376 -2.2424098323 -0.8390687708
H -2.5821724720 -2.0960747373 -1.1376051131
H -1.5816865240 -3.1382491148 -0.4792081741
O -0.6778611316 3.3542432712 -0.5706668046
H -0.7208947789 4.1862415568 -1.0525923183
H 0.1820412283 2.9583902436 -0.7734741700
O 0.9955260561 -0.9466414963 -2.4064435998
H 1.8329948672 -0.5214575796 -2.6544377778
H 0.7578911371 -1.5488915061 -3.1159201199
O -0.6136708488 -4.5211191917 0.5152768914
H -0.2441201705 -5.2544532229 0.0122083819
H -1.0839186551 -4.9328452160 1.2478590995
O -4.0578085863 -0.9352247045 -1.7357177796
H -4.3698278781 -1.0556114143 -2.6387056909
H -4.8532384202 -0.9292501907 -1.1930707951
O -1.8875987424 0.8444516507 -1.2153465203
H -1.8902469216 1.8089816244 -1.1486800391
H -2.7724064973 0.5221370764 -1.4447965268
O 3.2922006431 0.6925777811 -2.5318333866
H 4.1581816667 0.3034445131 -2.3695054843
H 3.4206242278 1.2995285737 -3.2685789895
40

Ca -0.4599061694 -0.5458505133 -0.1553522096
O 1.9566007525 -0.6449893054 3.0087429097
H 2.3501288796 -0.9656716212 3.8253527641
H 2.2969891990 0.2521884940 2.8586867195
O 1.2484344165 -1.9781749454 0.6514521262
H 1.7006318767 -1.7172373968 1.4727399348
H 1.1466086403 -2.9411606319 0.6552764464
O 1.1323142019 1.3062224705 -0.3816064183
H 1.6484789678 1.5636871942 0.4095405032
H 1.7515113730 1.2146793153 -1.1259710798
O -0.4460309245 2.8963315467 2.6400316606
H -0.8201196469 3.4006232382 3.3687666168
H -0.7983558073 3.2700872459 1.8143638352
O -0.5690025430 0.1673205024 2.0859799929
H 0.1193883131 -0.2072082313 2.6608429332
H -0.7307776728 1.0682595949 2.4166069833
O 2.1767933720 2.0516774556 2.0851973551
H 1.3874841599 2.5037108412 2.4381364458
H 2.9212381336 2.6457295753 2.2223839174
O -1.7638688909 -2.5342635607 -0.0566543685
H -1.3107924934 -3.3836252598 0.0908692684
H -2.7000890066 -2.6756915129 0.1049082750
O -1.0448745667 3.2823082777 -0.0978921461
H -1.1672476722 4.1558950446 -0.4829394189
H -0.2036322650 2.9401681801 -0.4347307115
O 0.0087670942 -0.7419664391 -2.4796934740
H -0.7064337967 -0.6058812117 -3.1198191417
H 0.8336328969 -0.4188728764 -2.8700479652
O 0.0757250177 -4.6198289942 0.3935720507
H 0.3225381905 -5.1996003919 -0.3347382547
H -0.0176791537 -5.1990895608 1.1573467923
O -2.5480973683 -0.0715042881 -3.6433063739
H -2.6507738406 0.5401238090 -4.3799657898
H -3.1711349587 -0.7828792738 -3.8255905560
O -2.2525857378 0.8094822657 -0.9020126847
H -2.2111650053 1.7570469271 -0.7039020404
H -2.5787600327 0.7062730754 -1.8091277916
O 2.5504606900 0.5923370534 -2.7673004750
H 3.3361243298 0.0385580383 -2.7073066786
H 2.7479837961 1.2335054510 -3.4580993884
40

Ca -0.5483207152 -0.3598576125 -0.1650915768
O 1.7875074009 -0.7205892933 3.1299899304
H 2.1391736216 -1.0348873949 3.9677370723
H 2.2713994426 0.0897925155 2.9015890153
O 0.7152272549 -2.0443091071 0.9131439127
H 1.2411160512 -1.8369596247 1.7042325965
H 0.3854690502 -2.9518330893 0.9944555665
O 1.2380775802 1.3142596407 -0.4189952466
H 1.7972740144 1.4812590252 0.3679591315
H 1.8222020253 1.2171730568 -1.1916217603
O -0.0184335831 3.1277679714 2.5962413512
H -0.2834547907 3.6937803519 3.3275411995
H -0.3049107631 3.5633337069 1.7761717911
O -0.5628193027 0.4002807703 2.0801077411
H 0.0500250505 -0.0402986360 2.6916791277
H -0.6222504544 1.3211282862 2.3827519302
O 2.4155307009 1.8524370583 2.0412856816
H 1.7084007243 2.4251536776 2.3952526753
H 3.2441450084 2.3254486908 2.1662374158
O -1.9090465532 -2.2157062338 -0.7309003578
H -2.1184387543 -2.4114433937 -1.6570158688
H -1.7901595377 -3.0634003804 -0.2724921865
O -0.5539243948 3.5941999602 -0.1417527581
H -0.5741754037 4.4377686394 -0.6045856445
H 0.2145372700 3.1034555427 -0.4707860411
O 0.0327305345 -0.5976790744 -2.4516118553
H -0.4687236387 -1.1523532571 -3.0697339300
H 0.8020579546 -0.2298150088 -2.9081350015
O -0.9464851192 -4.4026055544 0.8395524583
H -0.6502456052 -5.2311887561 0.4487285529
H -1.4342015905 -4.6578040381 1.6297992061
O -1.9181414099 -2.3134719515 -3.6168897236
H -1.6972263994 -3.1278637125 -4.0806700876
H -2.6453547327 -1.9292773032 -4.1178010347
O -2.1709620087 1.3523472427 -0.5004200075
H -1.8701578118 2.2757404364 -0.4340894680
H -3.1308668168 1.3569951527 -0.4678472264
O 2.4940312824 0.8097426512 -2.9199110692
H 3.3010296613 0.2891783530 -2.9914766426
H 2.5867930081 1.5117253913 -3.5724345425
40

Ca -0.3314504591 -0.2016367960 0.4394779183
O -0.0335534929 -1.7712238995 -3.0939795172
H 0.4732581090 -0.9811419076 -3.3420480017
H -0.0987818759 -2.3233249021 -3.8787684696
O 3.5821844947 -1.7184020052 0.2762749844
H 4.3289496088 -1.9494626207 -0.2859442452
H 3.8531985844 -1.9574269858 1.1684892259
O 0.8184150611 -2.1121747917 -0.4316139733
H 1.7530599275 -2.2930822898 -0.2573459218
H 0.6486569040 -2.3150116910 -1.3657725257
O -3.8491870987 -2.6156870568 0.1902845442
H -4.7562624975 -2.3146230629 0.3084220809
H -3.9136502163 -3.5619692266 0.0238985526
O -1.9405654070 -0.9845577593 -1.1885329921
H -2.6851245064 -1.5610430090 -0.9585073754
H -1.5380191692 -1.3298888854 -2.0036024324
O 1.3294370994 0.7647536174 -3.0120263171
H 1.9289038722 0.7552004511 -2.2490368738
H 1.7835064080 1.2152549955 -3.7310015407
O -0.5999847693 1.6453104765 -1.2589799717
H -0.0258284506 1.5024957659 -2.0373274787
H -1.5067576710 1.5826788632 -1.5809604942
O -0.3787078612 3.7989310930 0.6713406620
H -0.4114945933 3.4900942142 -0.2453719621
H -0.6041683897 4.7346899800 0.6638424344
O 1.9951455006 0.6014485496 -0.2442265821
H 2.2336106163 1.3901542448 0.2754612295
H 2.6454842419 -0.0862842510 -0.0139937409
O 0.9639853752 0.1123668648 2.4842486038
H 1.3781161718 0.9949194062 2.4864670827
H 0.7845050728 -0.1101289048 3.4012515961
O -1.7545486324 1.4888902463 1.4049175632
H -2.3767343486 1.3864160863 2.1290626111
H -1.5076486222 2.4273141180 1.3526163425
O 1.9599964603 2.6080072173 1.6930441665
H 1.2362316066 3.2147736022 1.4534784856
H 2.6621610217 3.1434554171 2.0745750748
O -1.7732094016 -1.5951656802 1.8048793856
H -2.5309222440 -2.0369633373 1.3810530043
H -1.6164903240 -2.0583059672 2.6312669269
