40

K 0.4975044220 0.9591625521 -1.2097024477
O 2.4208605156 1.9450336539 2.0618496140
H 2.9779115238 2.1282032180 2.8209547381
H 2.6945551051 1.0827830361 1.6894764146
O 2.6589459164 -0.7217274683 -2.1395751933
H 2.4331459399 -1.6679987722 -2.1106285948
H 3.3801110653 -0.6298130248 -2.7662786607
O -2.9020129087 1.7736846050 1.5762533269
H -3.4804539409 2.3442483156 2.0870460959
H -3.2384483950 0.8581830423 1.6706574062
O -0.1901664255 1.1090887302 1.5193685753
H 0.5690965443 1.5365581063 1.9476662462
H -1.0022796104 1.5739593641 1.7709515996
O -2.1951379118 1.9330945963 -1.1532005651
H -2.4790059148 2.0496047406 -0.2281723757
H -2.5877115112 2.6578094796 -1.6458650546
O 2.5829019094 -0.3587440888 0.6501109137
H 2.9229543775 -0.4516739524 -0.2528545508
H 2.4183955144 -1.2600924738 0.9671301241
O -3.4732479382 -0.9222793200 1.4501655585
H -3.4991532716 -0.9504836220 0.4593649275
H -4.2677238990 -1.3598565476 1.7652149668
O 2.0922250124 3.0184900732 -0.5196098435
H 2.3332295065 2.9072316169 0.4138276492
H 2.5187606102 3.8232415163 -0.8182832519
O 1.7257358459 -3.3056662159 -1.5016980436
H 1.8821907369 -4.1767863690 -1.8731032334
H 1.7761277607 -3.3914135373 -0.5319163718
O -0.6986436318 -1.5911938835 1.5411967611
H -1.6513484228 -1.6240102184 1.7241465959
H -0.4516647460 -0.6503380106 1.6593240692
O 1.6243737250 -2.9879424416 1.2861361702
H 1.9305592563 -3.5697086984 1.9857647982
H 0.7347444475 -2.6703717937 1.5413577732
O -0.5758648418 -1.6107355307 -1.2553420068
H -0.6186273710 -1.7320294486 -0.2877083653
H 0.0118924123 -2.3080774689 -1.5773687297
O -3.2597613834 -0.7789142647 -1.2081345399
H -3.0644760505 0.1511777387 -1.3925557936
H -2.4502196620 -1.2479634142 -1.4654342128
40

K -1.4339435950 1.8008953622 -0.9778938661
O 1.8342047252 -2.9897466141 -1.3510989524
H 2.0733042485 -2.0638117814 -1.5337709832
H 2.3994838203 -3.5450502639 -1.8927152387
O 3.7239876000 -0.1223575586 1.1772844792
H 4.6371146042 -0.2888551718 1.4217252314
H 3.2143462382 -0.9410901625 1.3996010987
O -0.5909074229 -1.9010941236 1.7593012711
H -1.4288278885 -1.8705465840 2.2340974129
H -0.3701619320 -0.9652377053 1.5776506406
O -3.1233130149 -0.6502315966 -0.8146409549
H -2.4945198015 -1.3540294374 -1.0541852704
H -3.9187352483 -0.8191828672 -1.3256987808
O -0.8683719280 -2.2667792380 -0.9707218462
H -0.7857317684 -2.2427412005 0.0056588476
H -0.1425036452 -2.8360399924 -1.2661548151
O -3.2153428696 -0.5077606560 2.0024101730
H -3.3428887168 -0.6691381834 1.0503000464
H -4.0380120634 -0.7495161950 2.4346918963
O 2.2292486062 -0.2395686634 -1.1716692760
H 2.9915951774 -0.0403365656 -0.6032420530
H 2.0309281542 0.5464039522 -1.6952854913
O 2.2586065322 -2.3540945742 1.4680046356
H 2.1619449087 -2.7821187066 0.6043435031
H 1.3767337206 -2.3730904736 1.8645985451
O 2.3035772399 2.2124321757 1.4575411631
H 2.4962429475 2.7939668464 2.1961261945
H 2.9335691080 1.4649893215 1.5025069836
O -0.4119161897 -0.0342092115 -2.6778587740
H -0.4085463507 -0.3050931860 -3.5977607751
H -0.4917294654 -0.8498486479 -2.1516054561
O 1.2767558861 2.7204032249 -1.1503708112
H 1.7048350017 2.7181190739 -0.2769128079
H 1.6784151949 3.4439812612 -1.6370432486
O 0.2268992509 0.4530153004 0.7226296559
H 0.8830831987 0.0832303403 0.1014019360
H 0.7273246595 1.1036018426 1.2392285039
O -2.5887131226 2.2011335417 1.4190990119
H -2.8263593599 1.3445643796 1.8139504483
H -2.9910741467 2.8716123214 1.9737926113
40

K -0.1251892727 1.1502254606 -1.0619195729
O 3.7489028450 1.2619944425 0.3978627836
H 3.5095604173 0.7376573481 1.1914362044
H 4.6910363614 1.4382834719 0.4526027870
O 2.5123613712 0.1347507706 -1.8158472730
H 2.8995593184 0.4531973093 -2.6351820518
H 3.0511768456 0.5180862156 -1.0949038985
O -2.4554725718 1.6025728201 1.1103311981
H -1.6185931788 1.4029327479 1.5536668382
H -3.0456741846 0.8604320766 1.3162904163
O 0.0823808173 0.3542483477 1.5708034058
H 0.9173776912 0.3445525190 2.0577313404
H -0.3170287129 -0.5223241444 1.7033869044
O -2.6819190199 2.0525110363 -1.5591015669
H -2.7488977205 2.0915323640 -0.5831954673
H -3.1713569861 2.7990208185 -1.9106361351
O 2.7682631109 -0.2572012035 2.4434425664
H 3.0993681090 -0.2887482115 3.3437697549
H 2.6062801167 -1.1827118552 2.1560662608
O -3.9283100060 -0.8481992041 1.1068691870
H -3.9197290576 -0.8577408860 0.1178711045
H -4.8197666047 -1.0588214745 1.3925156095
O 1.6445719775 3.0549829979 -0.3221964410
H 2.4595559466 2.6833017634 0.0456817196
H 1.6309168348 3.9798058419 -0.0686216394
O 1.9137897652 -2.5365438610 -1.3903467282
H 2.2478017284 -1.6516565370 -1.6350785079
H 2.3302088260 -3.1690492292 -1.9806079063
O -1.4895522385 -1.9787693293 1.5212315397
H -2.4358886497 -1.7263005660 1.5371565479
H -1.3994005109 -2.8049838080 2.0003888864
O 2.0669173144 -2.6831524105 1.4286270842
H 2.0505119759 -2.7176325959 0.4551439068
H 2.4204378649 -3.5258177464 1.7219290806
O -0.7866851541 -1.5482366481 -1.1738641434
H -0.9870636362 -1.8318644454 -0.2642474308
H -0.0246013146 -2.0802278656 -1.4413038886
O -3.5265568528 -0.7294983457 -1.5387201331
H -2.6802383573 -1.1669159450 -1.7102160553
H -3.3821180072 0.2027649775 -1.7593318078
40

K -0.3963448797 0.7068276823 -1.0204104667
O 3.5248165519 1.3617111919 0.3327590992
H 3.3462076760 0.8265938919 1.1364835842
H 4.4453262593 1.6309580014 0.3748275976
O 2.3732956653 0.0732578598 -1.8448406526
H 2.6789633726 0.4543043555 -2.6719700664
H 2.8780595996 0.5262047940 -1.1400950798
O -2.3921160430 1.7754650324 1.2750963153
H -1.5433926317 1.5096322846 1.6642710726
H -2.9651050568 1.0086682473 1.4055798151
O -0.0688217147 0.3142170785 1.7666881045
H 0.8222139654 0.3892309536 2.1392531362
H -0.3767126477 -0.5724600268 2.0046580719
O -2.5726413151 2.6350518642 -1.2713309766
H -2.5781042239 2.5590755654 -0.2940312953
H -2.8837676407 3.5134397792 -1.4974332124
O 2.6765036723 -0.1772069178 2.4107759888
H 3.0913086330 -0.2657823564 3.2718701005
H 2.4487112640 -1.0868484865 2.0979173838
O -3.4972132154 -0.9415239940 0.9045474240
H -3.4771480772 -0.7156857203 -0.0485005739
H -4.3928939291 -1.2279257724 1.0998135649
O 1.1587509141 2.8142507939 -0.2966385429
H 2.0428033681 2.5752105110 0.0179999987
H 1.0170575717 3.7303551470 -0.0524688990
O 2.2480623038 -2.6599845438 -1.3727336486
H 2.4538959913 -1.7509454449 -1.6603538118
H 2.8118029248 -3.2603804341 -1.8650594854
O -1.2585648012 -2.3334832004 1.7661021647
H -2.1128092303 -1.9270320924 1.5114693982
H -1.4620043088 -2.9774703995 2.4494349514
O 1.7895483364 -2.5034424447 1.4204699020
H 2.0442351364 -2.6676318484 0.4971219076
H 0.8249824328 -2.5247313150 1.4296645300
O -0.5234843933 -2.0297937931 -1.1397343766
H -0.8631051366 -2.5016015013 -0.3720058094
H 0.3111702266 -2.4678446028 -1.3613819338
O -3.1672040570 0.0118303744 -1.6493413464
H -3.4886959495 -0.3785113830 -2.4647510816
H -3.2616394885 0.9796744804 -1.7213742919
40

K 1.9363016267 2.0543574327 1.6538485194
O 3.6764416835 0.0543339921 -1.5292742893
H 4.4854720233 0.1653717645 -2.0338442510
H 3.1731114557 0.8814125596 -1.6042915589
O -0.4812206610 1.2248769800 -1.4442100341
H -1.3678733171 1.5123075347 -1.7179875330
H -0.4430878336 0.2479353204 -1.6025844036
O -3.4693156461 1.2559912320 1.2528531778
H -4.1243939913 1.6656481282 1.8233614202
H -3.6208817980 0.2875059269 1.3011640393
O -0.6098442349 1.2945291473 1.3009137192
H -0.6100978450 1.2892042629 0.3183597583
H -1.5384965822 1.4565071014 1.5318425309
O -3.2749012166 1.5965450099 -1.5703286972
H -3.4923522028 1.6391848568 -0.6222783581
H -3.8809680102 2.1859771375 -2.0255189430
O 2.9354939490 -0.2837035635 1.1826907094
H 3.3914065851 -0.3070677389 0.3282609840
H 2.6383911018 -1.1943681711 1.3431472714
O -3.5334775518 -1.4816932467 1.0439837368
H -3.5175877795 -1.5258626794 0.0511826172
H -4.2136624168 -2.0890055421 1.3447039607
O 1.9627007883 2.3444224547 -1.1443905348
H 2.1289605577 3.1244223089 -1.6799143398
H 1.0702874930 2.0242170156 -1.4052862428
O 2.0659567689 -2.4113708640 -1.6988659616
H 2.1415486224 -2.7439960742 -0.7939828971
H 2.6735282566 -1.6611663423 -1.7532410319
O -0.7224857934 -1.5878545057 1.3036007595
H -1.6771025519 -1.7457471281 1.4004588486
H -0.6034369126 -0.6376499784 1.4705934910
O 1.7621822518 -2.8387102757 1.2320269026
H 1.9515046034 -3.6163923712 1.7616977173
H 0.8279173881 -2.6094894064 1.3827715657
O -0.4632156256 -1.4468824692 -1.5266900203
H -0.5302558035 -1.6056962082 -0.5679626566
H 0.4002171507 -1.8455934364 -1.7763339239
O -3.2892054919 -1.3474192743 -1.5929626082
H -3.4088370129 -0.4213540933 -1.8439042211
H -2.3809542544 -1.5702678352 -1.8514556834
40

K 1.6436975036 -2.4630549040 0.1598239830
O -0.4280875785 3.5128708027 1.0104562205
H 0.1073568262 2.7561079037 1.3147660476
H -0.4186797136 4.1742503608 1.7060355577
O 3.1196395377 1.9164686988 -0.5121976354
H 3.8685780884 2.4941015302 -0.3477699693
H 2.4411787278 2.4594521593 -0.9876455571
O -0.9299119794 1.5474775837 -2.5169763509
H -1.1885744534 1.4623063588 -3.4373490911
H -0.5054676224 0.7111764425 -2.2457724012
O -2.5502336943 -1.8280809425 -0.9092878831
H -2.8956277779 -2.0355069260 -1.7810265727
H -3.2565025221 -1.3346548058 -0.4438743706
O -2.3184833929 1.7188774173 -0.0011021017
H -2.0158282704 1.7113804775 -0.9241000555
H -1.9100318454 2.5090557240 0.3915886021
O -0.7265592706 -3.7219108462 0.1238859615
H -1.4829952547 -3.1773299313 -0.1507854507
H -1.0867273229 -4.5775599974 0.3637753708
O 1.0348398664 1.1661096773 1.1281681825
H 1.9017114686 1.4066582314 0.7494071564
H 1.1822354526 0.4933813011 1.8125007133
O -4.2462623718 -0.1905917096 0.4977951193
H -5.1991972639 -0.0821777372 0.5199633223
H -3.8530222322 0.6824920772 0.3227683891
O 1.0762610451 3.3315115909 -1.4906677037
H 0.5801737319 3.6625780006 -0.7280409876
H 0.4266134670 2.8400759979 -2.0157173695
O 3.6030456078 -0.8510943645 -0.7031293540
H 4.4778385134 -1.0183236920 -1.0590746599
H 3.4758176900 0.1120915038 -0.7657465435
O -1.6506116369 -0.3649657576 1.8938213700
H -2.5497768010 -0.6892920259 2.0030550665
H -1.7382671428 0.3887257741 1.2867294977
O 0.8326528402 -1.2479731555 2.5270247793
H 0.9709753433 -1.4194649572 3.4611824225
H -0.1240983510 -1.0579470921 2.4189863714
O 0.0086717512 -0.5281048941 -0.9509221546
H -0.8855440423 -0.8772662130 -0.7908396386
H 0.1959523265 0.1151704667 -0.2419438855
40

K 1.6476527308 -2.4280188417 0.1325085894
O -0.4076072150 3.5249693112 1.0637180193
H 0.1205486302 2.7599556598 1.3599447476
H -0.4087034076 4.1706981604 1.7737739473
O 3.1581925929 1.9485540912 -0.4256367159
H 3.9096306106 2.5159161610 -0.2392380281
H 2.4922429977 2.5059965028 -0.9018259226
O -0.8500248703 1.6442448871 -2.5137318403
H -1.0891963453 1.5799177021 -3.4409258200
H -0.4390484949 0.7990601943 -2.2496289823
O -2.5163205670 -1.7734716404 -0.9929299691
H -2.8489484571 -1.9614665626 -1.8739102581
H -3.2266680011 -1.2839922168 -0.5296309497
O -2.2830027155 1.7638395466 -0.0218139124
H -1.9644195198 1.7766257614 -0.9393285182
H -1.8789645928 2.5435663900 0.3955383593
O -0.7138429424 -3.6914631393 0.0338011017
H -1.4634684894 -3.1389746252 -0.2434806474
H -1.0797622236 -4.5539066513 0.2377213956
O 1.0408431160 1.1728075288 1.1592518370
H 1.9152510702 1.4166851400 0.8008909507
H 1.1745629623 0.4880470668 1.8343138174
O -4.2223371153 -0.1458123808 0.4101286985
H -5.1743705649 -0.0288579434 0.4189141816
H -3.8180837944 0.7267484360 0.2590487706
O 1.1423128721 3.3947519220 -1.4123745243
H 0.6307335223 3.7049487531 -0.6512796857
H 0.5035289959 2.9139152138 -1.9600749770
O 3.6295244228 -0.8186289927 -0.6850259343
H 4.5034249679 -0.9838174264 -1.0437351620
H 3.5109337272 0.1468858370 -0.7202291570
O -1.6549343555 -0.3659818167 1.8409024143
H -2.5589297511 -0.6818729126 1.9330681250
H -1.7275790452 0.4020560142 1.2502356860
O 0.8138314754 -1.2588518291 2.5180921773
H 0.9411492647 -1.4486456460 3.4500981715
H -0.1406637059 -1.0659007724 2.3998449206
O 0.0372019288 -0.4698379491 -0.9745652868
H -0.8605422614 -0.8201227332 -0.8374672471
H 0.2151088655 0.1517994593 -0.2445156909
40

K -1.5095696092 1.6658070811 -0.7922749705
O 1.9076590839 -2.7782858285 -1.3964022990
H 2.2148198463 -1.8552699327 -1.4723414121
H 2.4673662269 -3.3152673501 -1.9616832104
O 3.8845109441 -0.2984457328 1.3353578254
H 4.7910550913 -0.5427154177 1.5353519336
H 3.3301314389 -1.0994230297 1.4972247135
O -0.5351550475 -1.4745207910 1.5601918235
H -1.3920667200 -1.4164943724 2.0060629597
H -0.2048634502 -0.5548856213 1.4731539037
O -3.2405454820 -0.8237490012 -0.7578870069
H -2.5942475403 -1.4841077611 -1.0598766353
H -4.0317076035 -0.9559695688 -1.2863042075
O -0.7540378138 -2.0031647617 -1.1106655475
H -0.6693972995 -1.8640476359 -0.1394643142
H 0.0194873004 -2.5413999294 -1.3487783260
O -3.2954846099 -0.7857693391 2.0537030679
H -3.4845642094 -0.9567224306 1.1143742440
H -3.9856136572 -1.2147448364 2.5654094579
O 2.4570626416 -0.0780489951 -1.0345747792
H 3.1938764143 0.0258418251 -0.4058798091
H 2.3820323505 0.7215292336 -1.5762830551
O 2.2189175392 -2.4187895221 1.4988951590
H 2.1395215192 -2.7861458842 0.6071495296
H 1.3096180456 -2.2751633785 1.7960011051
O 2.4872755605 1.9273037394 2.3418013612
H 2.5551768478 2.1644524906 3.2683458696
H 3.1194089151 1.2049360809 2.1858925551
O -0.8164205174 0.0020307376 -2.9785786860
H -1.1504105262 -0.3409936742 -3.8101927360
H -0.7279107331 -0.7647843907 -2.3717369495
O 1.0422957930 1.9608941683 -2.4291407870
H 1.3489524294 2.6113343718 -3.0653634223
H 0.5486970479 1.2867048166 -2.9264871145
O 0.5167607010 0.8918480683 0.7839840050
H 1.1638660075 0.5020283663 0.1663167185
H 1.0705381188 1.3717231700 1.4348128754
O -2.9347571777 1.9586299514 1.4468478813
H -3.1919224046 2.6440351334 2.0660268768
H -3.1379815946 1.1116115805 1.8757849933
40

K 1.6044505059 -0.6595982233 1.7086834721
O 1.9782252491 2.0035386916 2.6055272909
H 2.6210196016 2.0971539226 1.8847799709
H 2.2386062485 2.6063699276 3.3056773442
O 3.4778947317 -0.4846147772 -2.3818944624
H 3.8380471869 -0.7697607310 -3.2247104576
H 2.9536985816 0.3155903938 -2.5565444560
O -0.5254971608 1.2707191409 -1.4576632116
H -1.4324776803 1.5016008313 -1.7411961128
H -0.5065974725 0.2906876393 -1.4241847267
O -3.4844861224 1.4952191443 0.9492839998
H -2.6299333261 1.6917113973 1.3512317264
H -3.7175964670 0.5965500821 1.2329572492
O -0.4999257013 1.4591529933 1.3129840351
H -0.4470188095 1.5987510092 0.3468562986
H 0.1783080807 1.9969219409 1.7456765208
O -3.2524456237 1.4974685414 -1.7386192211
H -3.4460242472 1.6058206697 -0.7779865940
H -3.8464856845 2.0771898371 -2.2204465336
O 3.1566876030 1.2125726887 0.2437638765
H 4.0431602172 0.9314279498 -0.0005230476
H 2.7721894014 1.5620991641 -0.5838209566
O -3.7811296582 -1.3560604003 1.2535480525
H -3.7321267903 -1.4667179086 0.2753185695
H -4.5414203080 -1.8546935672 1.5607667694
O 1.9831970649 1.8878623087 -2.1881046027
H 2.1219637209 2.6999067619 -2.6812109876
H 1.0116081809 1.7756624356 -2.0784819118
O 2.3005159944 -2.1401418966 -0.5403677237
H 2.6167998562 -3.0426807590 -0.6273657763
H 2.7714895553 -1.6185336593 -1.2257954486
O -1.0615180517 -1.2246508958 1.6853614476
H -1.9916346970 -1.5073512916 1.7590359058
H -1.1031955161 -0.2528182605 1.6830805244
O -0.4437805190 -1.4462047266 -1.0331713643
H -0.7181083890 -1.5053377539 -0.0970805309
H 0.4213459882 -1.8799931476 -1.0800400959
O -3.3620138639 -1.3766381429 -1.4187533221
H -3.4385213145 -0.4637319447 -1.7366415781
H -2.4611961573 -1.6495659159 -1.6308965699
