40

Br -3.6366808936 -0.9462169813 -0.1965465045
O 3.5572233242 2.0490630165 0.9548889439
H 4.0337072731 1.7726344615 0.1581386376
H 2.6493689394 2.2455291780 0.6641414887
O 0.3428435493 0.0640980042 2.0676614622
H 1.1876662269 -0.2466352153 2.4182704229
H 0.5737821658 0.8204928823 1.4882308415
O 0.1338557911 0.3563928971 -1.8609648665
H -0.7169959559 0.7567943834 -2.1066134637
H -0.1039768752 -0.4027613120 -1.2878752310
O 2.7729054050 -0.5290217314 -2.3414207502
H 1.9121527978 -0.0870682496 -2.4193559254
H 2.6322253118 -1.1701240163 -1.6166177211
O -2.4684792627 1.4770679641 -1.9208972085
H -2.8636587169 0.7405042628 -1.3907461683
H -3.0916694495 1.6223498579 -2.6351353986
O 0.8449331631 2.0954895602 0.2275036813
H 0.6922954311 1.5417045716 -0.5623766934
H 0.0135632888 2.6121860015 0.3194001363
O 4.8683184561 0.6789302641 -1.2337626029
H 4.0855028101 0.3158630287 -1.7231647186
H 5.4862098798 0.9813926419 -1.9005509751
O 3.2185675487 -0.4534468469 2.0808571993
H 3.3609255522 0.4648191783 1.7625336191
H 4.0500724482 -0.9073767895 1.8781442703
O 2.3590174583 -2.1248579801 -0.0821500573
H 1.4037505914 -2.2910701437 -0.1168583570
H 2.4822833479 -1.5121159704 0.6664232030
O -2.4225297804 1.1051670346 2.2300457292
H -1.5821867058 0.6644384059 2.4150480122
H -2.8990576955 0.4891481848 1.6464408645
O -1.6972258019 3.1137577970 0.4070535007
H -2.0568354830 2.7460059940 -0.4130634901
H -2.0165796800 2.5011754962 1.1004046836
O -0.4261702274 -1.6643312154 -0.0119523046
H -1.3953474743 -1.7378077285 -0.0999348178
H -0.2891331254 -1.1233950410 0.7896535684
O 5.2811435913 -1.7022553134 0.4415390167
H 5.2848390003 -0.9157945329 -0.1266875726
H 4.5613004713 -2.2419756045 0.0944519019
40

Br -2.4760080445 1.5127914177 0.1477005040
O 3.6801181547 2.0645103565 1.2111061543
H 3.8377496472 1.2365870173 1.7003035982
H 2.7163241504 2.1303518843 1.1439670082
O 4.7318885385 -1.4332669774 -0.4739840051
H 5.5751105865 -1.7622472064 -0.7874167901
H 4.6388966492 -0.5107822039 -0.8338604078
O 1.6207349091 0.4982230557 -1.9863928666
H 0.7312458804 0.5369073263 -2.3966116734
H 1.7047442924 -0.4183914256 -1.6629042260
O 0.9031049915 1.5644920156 0.5109640456
H -0.0534061376 1.7434929556 0.4938561959
H 1.1261836436 1.2924645606 -0.4018236415
O -1.0358472117 0.2868616582 -2.6787053017
H -1.4996403234 0.8391174051 -2.0274487217
H -1.0720694898 -0.5986730268 -2.2777652429
O 4.0344668252 -0.5812323908 2.2536582923
H 4.3660076039 -0.9798645159 1.4357069939
H 3.0980461443 -0.8316725386 2.2838091314
O -4.1755216143 -2.1277623065 1.6070318253
H -4.1638557480 -1.9510413838 0.6428737772
H -4.5553281221 -1.3315570244 1.9863621550
O 4.3185899720 1.0681652104 -1.3120933543
H 4.1548072776 1.5326072794 -0.4643001544
H 3.4515936689 1.0464742943 -1.7475551041
O 1.9519785528 -2.0322010487 -0.7513489217
H 1.7364768884 -1.7200536648 0.1519428485
H 2.9192167142 -2.0917516043 -0.7669954925
O -1.4636500163 -1.3765637398 1.4101631898
H -2.3143569134 -1.7769035968 1.6645530880
H -1.7069734016 -0.4665712820 1.1441735192
O 1.2602026080 -0.9087642561 1.7008196939
H 1.1183404180 0.0031249076 1.3663132025
H 0.3631180911 -1.2346797590 1.8808561433
O -0.9434816704 -2.2183543387 -1.2357308649
H -1.0735501305 -1.9829664399 -0.2961791722
H -0.0050488173 -2.4382562002 -1.3047723414
O -3.8433132625 -1.3773169561 -1.0479549825
H -3.5393637829 -0.4722731063 -0.8557311595
H -3.0656014327 -1.8181117065 -1.4111032419
40

Br -2.3843605848 1.6565114884 0.4591108805
O 3.7297460244 2.0986060742 0.8655394274
H 3.9010173612 1.3221894267 1.4281375356
H 2.7632556415 2.1739512091 0.8547875531
O 4.7034074503 -1.5062618249 -0.5027657577
H 5.5401593262 -1.8526319589 -0.8144552031
H 4.5670291550 -0.6340031918 -0.9606223070
O 1.3849376968 0.2547455625 -2.0137716130
H 0.4683549643 0.2361664597 -2.3462568940
H 1.5302542070 -0.6235224302 -1.6135601898
O 0.9439112820 1.5571391180 0.4593318369
H 0.0016442360 1.7988868984 0.5238029235
H 1.0581662318 1.2139210686 -0.4479782601
O -1.4162827816 -0.0623643635 -2.3010620848
H -1.6437678295 0.5577950455 -1.5837473893
H -1.2784701219 -0.9144464525 -1.8446090811
O 4.0511992932 -0.4438486171 2.1573698265
H 4.3465013669 -0.9180985267 1.3663712377
H 3.1215532171 -0.6926504694 2.2670798406
O -3.6102876487 -2.8457905319 0.2828460268
H -3.9472889110 -2.0982981922 -0.2480159629
H -2.8853802491 -3.1898894855 -0.2514833790
O 4.1657913826 0.8724032910 -1.5852105174
H 4.0595299035 1.4144445543 -0.7734519984
H 3.2751247906 0.8172763412 -1.9629327694
O 1.9490793804 -2.1148356960 -0.5713053755
H 1.7496169585 -1.7425564553 0.3130703766
H 2.9160338710 -2.1674734025 -0.6198371571
O -1.6145333400 -1.3387409871 1.6482308248
H -2.4142241465 -1.8657333243 1.4706579783
H -1.8679404344 -0.4228015610 1.4176425288
O 1.2091684204 -0.8542670303 1.7843728256
H 1.0703855640 0.0395765219 1.4014537500
H 0.3205803257 -1.1659352364 2.0142283661
O -0.8723205996 -2.4398165167 -0.8478997509
H -0.9840747175 -2.0376236606 0.0355198264
H 0.0741887288 -2.6243901448 -0.9222396466
O -4.2603041353 -0.5632294288 -1.2813026527
H -3.5880138971 -0.5350934043 -1.9739348584
H -3.9813960219 0.1595203581 -0.6939733310
40

Br -3.5994074738 -1.1279038644 -0.1886622736
O 3.4008890492 1.7700340125 0.1327489862
H 3.1522999433 1.2227946133 -0.6367501228
H 2.6045253414 2.2960380921 0.3057047136
O 0.3739585153 0.2309822664 2.0566685608
H 1.2468728992 -0.0583856968 2.3542883072
H 0.5351206367 1.0227120458 1.5028147575
O 0.0826250745 0.5938220993 -1.8912255278
H -0.7968668856 0.9290949364 -2.1299644018
H -0.1016061732 -0.1827010113 -1.3200571215
O 2.8544116641 -0.0247627298 -1.9878461746
H 1.9791649162 0.2600408302 -2.2926082297
H 2.6750605645 -0.8123036138 -1.4339457277
O -2.6295402078 1.4625104331 -1.8338515163
H -2.9510195179 0.6774957643 -1.3265096650
H -3.2918164245 1.5964971230 -2.5144110745
O 0.6445010259 2.3542677517 0.2579347762
H 0.4972528036 1.8116518167 -0.5404851265
H -0.2218288195 2.7958726803 0.3977302859
O 5.6194928556 0.2540968018 -1.1530041289
H 4.8564578040 0.1456952570 -1.7387456223
H 5.3727413117 1.0116247800 -0.6097720161
O 3.2424360994 -0.3468948490 1.9820521722
H 3.3747146379 0.4472342873 1.4281052107
H 4.0456892287 -0.8762494253 1.8447229486
O 2.3595305319 -2.0567497279 -0.1438873440
H 1.3979994192 -2.1828017336 -0.2050079700
H 2.4816136137 -1.5020566499 0.6475470641
O -2.4960374229 0.9732268824 2.2629894632
H -1.6194717710 0.6000507828 2.4249554433
H -2.9318065049 0.3373301444 1.6689112152
O -1.9829572635 3.1181381424 0.5155057720
H -2.3086412678 2.7361332863 -0.3126245940
H -2.2366460691 2.4577184855 1.1909639114
O -0.3633330207 -1.4544723788 -0.0721393336
H -1.3330494124 -1.5736215140 -0.1314394538
H -0.2214931093 -0.9369772805 0.7438573682
O 5.2389727205 -1.9481704825 0.6818910572
H 5.4947035205 -1.2590970998 0.0441196094
H 4.5084221766 -2.4098639766 0.2539198575
40

Br -3.1352572455 0.6812716461 0.6694106730
O 1.8648166079 3.5890336901 0.2299336669
H 2.5275737955 3.2612866269 0.8472844702
H 1.0928410742 3.0287382352 0.4151182513
O 4.1971265483 0.6733876509 -0.4855008240
H 3.7341773818 0.9264978142 0.3357155815
H 3.7311201763 1.1682224659 -1.1896244344
O 0.4337997475 0.3744842338 -1.9288143453
H -0.4822926460 0.2497606561 -2.2293690800
H 0.7635472844 -0.5237857096 -1.7190166007
O 0.0806965355 1.3621501348 0.6628960622
H -0.8878383064 1.3708576498 0.8028847031
H 0.1864833448 1.0442631254 -0.2586284501
O -2.2881213630 -0.2653728614 -2.2696520021
H -2.5887981706 0.0280443812 -1.3740604815
H -2.9536325861 0.0612308348 -2.8778401769
O 2.7184129119 1.1546541616 1.8829575615
H 2.8660312950 0.2487358313 2.2176082100
H 1.7815369253 1.1719977170 1.6351203264
O -2.2235947697 -2.5601157634 1.0883533595
H -2.0911510031 -2.8169496372 0.1580439076
H -2.6840186602 -1.7044259293 1.0393386797
O 2.6118348728 2.2064542628 -2.1995179588
H 2.3684498601 2.8236997692 -1.4886302189
H 1.8346380535 1.6327777490 -2.2926495564
O 3.9396398496 -1.9589768344 -0.3752754315
H 4.7534896231 -2.3861510714 -0.6442619822
H 4.0772689972 -0.9801380075 -0.4962379711
O 0.2466418516 -1.5108525718 1.4960792960
H -0.6450749266 -1.9334446023 1.4767634960
H 0.0830573956 -0.5609157473 1.3973906209
O 2.9435930256 -1.6128917490 2.3764673314
H 3.3509908922 -1.8732060338 1.5370054756
H 1.9930274452 -1.7611111262 2.2417126230
O 1.1955312777 -2.1270987273 -1.0241055393
H 0.9003497733 -1.9645020603 -0.1021902444
H 2.1582385245 -2.2368166642 -0.9638676498
O -1.5150665383 -2.9983020331 -1.6679989749
H -1.8249401495 -2.1415412293 -1.9990522977
H -0.5536082329 -2.9042695702 -1.6075492845
40

Br -3.5476118057 -1.1551366456 -0.0521229097
O 3.4170337945 1.7412521963 -0.0875257709
H 3.2402276095 1.1818977671 -0.8694080478
H 2.6111070596 2.2722550052 0.0105608578
O 0.3476577493 0.4215055727 2.0327661389
H 1.2134217529 0.1700311235 2.3794141618
H 0.5199645119 1.1543558159 1.4051637411
O -0.0290440564 0.4693918088 -1.9483527457
H -0.9221333485 0.7826086098 -2.1668079921
H -0.1695338982 -0.2701981768 -1.3203905324
O 2.7410232705 -0.1180182790 -2.0840961838
H 1.8663018058 0.1602207402 -2.3951350874
H 2.5464564719 -0.8277834874 -1.4411723695
O -2.7266001629 1.3487840803 -1.8785852896
H -3.0159138315 0.5921324937 -1.3113526026
H -3.4039720227 1.4177726036 -2.5538555832
O 0.6523789007 2.3522042206 0.0417475275
H 0.4675853686 1.7533412631 -0.7079253693
H -0.1993981022 2.8231031171 0.1719311592
O 5.8650893509 0.0937890577 0.8414652556
H 5.4069298679 0.8868595127 0.5399423121
H 5.7219811743 -0.5476755048 0.1252646205
O 3.1708202222 -0.2032756776 1.8880883804
H 3.1989240347 0.5293675297 1.2365965557
H 4.1118043724 -0.3720618980 2.0318352106
O 2.4297743226 -2.0818414724 -0.0833279920
H 1.4646067080 -2.1935354665 -0.0734267715
H 2.6283436997 -1.5267316081 0.6947008830
O -2.5003097509 1.1725835468 2.2288070227
H -1.6172634710 0.8184473678 2.4007530527
H -2.9383563294 0.4877940789 1.6944580360
O -1.9634969324 3.1624668658 0.3135593870
H -2.3200231947 2.7346216542 -0.4781496223
H -2.2192811819 2.5590997229 1.0397736633
O -0.3016034702 -1.4616327870 0.0434837235
H -1.2679988492 -1.6083928928 0.0084630377
H -0.1686569572 -0.8734589058 0.8114615282
O 5.0872969031 -1.7414822378 -1.2781950106
H 4.3218076074 -2.1863895957 -0.8887818244
H 4.6890506326 -1.1659504434 -1.9415261830
40

Br -2.9551253126 0.3095173041 0.8443411402
O 2.1958608152 3.5132645815 0.3563536764
H 2.8686258069 3.0425257771 0.8795303024
H 1.3696543102 3.0540415999 0.5739377346
O 4.6789615207 0.7924128371 -1.0794610857
H 5.4768823005 0.9509621846 -1.5845507667
H 3.9549106876 1.3109265381 -1.5212942946
O 0.3896041834 0.5137011746 -1.9945501373
H -0.5266148055 0.4674810207 -2.3095749580
H 0.5962556234 -0.4004242153 -1.6994064378
O 0.1488324084 1.5383810000 0.6012924793
H -0.7808628911 1.3885165880 0.8467377022
H 0.2007572113 1.2295804609 -0.3256191651
O -2.3715811192 -0.0988573908 -2.2939102812
H -2.5839675912 0.0443874950 -1.3413234554
H -3.1096343768 0.2804624851 -2.7743808137
O 4.0864012565 1.7461269852 1.6131338545
H 3.5051351880 1.0575996045 1.9641018329
H 4.4238575454 1.3861381009 0.7786075861
O -2.7000969558 -3.2182682745 0.5882095355
H -2.4092474683 -3.2223784736 -0.3420504726
H -3.0929007811 -2.3410211147 0.7028928500
O 2.6743743797 2.2306596068 -2.0784416444
H 2.4759979716 2.7883215392 -1.2973598952
H 1.8841903568 1.6802800306 -2.2038338875
O 3.4437746512 -1.5758941759 -0.0441154205
H 3.0180236398 -1.0954128105 0.6875169655
H 3.9509368901 -0.8943423284 -0.5107559923
O -0.4421986081 -1.8413961286 1.5292875516
H -1.0715607519 -2.5734423835 1.3906197992
H -1.0322424375 -1.0697833103 1.4556893445
O 1.8998988989 -0.1850890427 1.9399298189
H 1.2924042358 0.4398893061 1.4926766340
H 1.3190189576 -0.9148673254 2.1931736922
O 0.8576804766 -1.9878359332 -0.9614781654
H 0.4407457534 -1.9276926938 -0.0778076360
H 1.8192275908 -1.9912861672 -0.7861419300
O -1.6301690945 -2.9271920185 -2.0613761052
H -1.9433241564 -2.0345420390 -2.2696080137
H -0.6918254741 -2.8039972898 -1.8531356301
40

Br -2.4962426178 -1.7116509627 0.2615021114
O 3.3201327835 2.9871856962 -0.5026469860
H 3.2375281318 2.5252179081 -1.3562284727
H 2.4094655240 3.2262501922 -0.2794011951
O 0.9876971087 0.7014927347 1.3730127190
H 1.9647482672 0.6339217691 1.3325902274
H 0.7777575714 1.5327022302 0.8924637655
O -0.0795255456 1.3573351426 -2.5164123377
H -1.0405369800 1.4386757475 -2.5734671261
H 0.0412520805 0.5192765495 -2.0181997467
O 2.8849391831 1.3023687299 -2.7730636088
H 1.9348793016 1.3416211791 -2.9458650629
H 3.0574352856 0.4018587363 -2.4650155090
O -2.8481116024 1.0229922977 -1.5476204843
H -2.7035351736 0.2139352885 -1.0096106972
H -3.7268194779 0.9057914420 -1.9143432742
O 0.4012399155 2.9100521682 -0.1844291322
H 0.2724072242 2.4771949096 -1.0494115362
H -0.5094839516 3.1091845059 0.1200058168
O 0.5276388440 -2.1276251270 2.1302530596
H -0.2985169412 -2.3560359553 1.6808279564
H 0.5427542792 -1.1625494076 2.0920959494
O 3.6821581344 0.5215092553 0.7781456952
H 3.7220598607 1.4428944485 0.4531990737
H 3.5549007651 -0.0088261239 -0.0269383732
O 3.0447290144 -1.3603852873 -1.3663973544
H 2.0709998762 -1.3453120548 -1.3303502259
H 3.2765110020 -1.9541794401 -0.6315935138
O -1.8049130643 0.8498026519 2.4218046345
H -0.8431510598 0.7856703013 2.3650565792
H -2.1213652658 0.0709826026 1.9326072944
O -2.2577481020 2.9504841765 0.5849147803
H -2.5881182599 2.4249090034 -0.1590581005
H -2.1941470330 2.3000620576 1.3106651400
O 0.3665393886 -0.8071193562 -0.9349360374
H -0.4677676941 -1.2815802575 -0.7485645734
H 0.5592467260 -0.3439066500 -0.0952675219
O 3.2413473292 -2.4890974799 1.2516127304
H 2.3050722266 -2.5063495347 1.5213123411
H 3.5843239819 -1.6689027931 1.6216901093
40

Br -2.7561046228 0.2473106606 1.1947503492
O 2.4908964373 3.1922625316 0.1873916465
H 2.9190294973 2.4890162345 0.6947447681
H 1.5433183501 3.0741948767 0.3508100232
O 3.6174685584 0.0613491374 -1.3035787666
H 3.4491588204 0.3864574436 -0.4060543555
H 3.3899008846 0.8238540256 -1.8730864858
O -0.0212310527 0.9483003331 -2.2839768837
H -0.9578534166 0.7532323939 -2.4384630225
H 0.3834413125 0.0844992265 -2.0548212434
O -0.2376921793 2.2790818906 0.1452549590
H -1.1253925092 2.0495004779 0.4647199162
H -0.1674616471 1.8340040157 -0.7244921589
O -2.6831341401 -0.0432901168 -2.0401541452
H -2.7409956005 0.0505004067 -1.0615530851
H -3.5622595233 0.1581880040 -2.3652227252
O 3.3132802678 0.6846244306 1.6228787929
H 3.6680264069 -0.2214557368 1.5709055481
H 2.4516768849 0.5815950304 2.0517444893
O -1.5179199477 -2.9685187501 0.6620588856
H -1.5372749367 -2.9543035008 -0.3118520878
H -1.9793196209 -2.1554396394 0.9228504629
O 2.5618966621 2.3330074489 -2.5376879993
H 2.5594946215 2.7767762466 -1.6700188513
H 1.6486005437 2.0390511566 -2.6620362202
O 3.8969492569 -2.0132962005 0.9554468233
H 2.9594709623 -2.2712600832 0.9941188111
H 4.0633779170 -1.8283122999 0.0250671880
O 1.0651283448 -2.1092506694 1.0229248667
H 0.1917864672 -2.5575345833 0.9859167677
H 0.8771041977 -1.2385425626 1.4224953247
O 0.4924779483 0.4189349611 2.1050987294
H 0.3723113560 1.0491079135 1.3675340703
H -0.4256102005 0.2323539036 2.3530567108
O 1.2711996824 -1.4189433605 -1.6581446604
H 1.1629820843 -1.6727033158 -0.7178495568
H 2.1576032432 -1.0103776922 -1.6842537564
O -1.3333174989 -2.6223100236 -2.1851300988
H -1.8454690213 -1.8023773632 -2.2524151848
H -0.4102483763 -2.3428403960 -2.2615645487
40

Br -2.6343781866 1.2148167720 -0.2438765681
O 3.1455324558 2.0616624654 1.5424445023
H 3.2023001194 1.2142818832 2.0179202960
H 2.2138712725 2.1254009357 1.2833035608
O 4.6472601490 -1.2754618795 0.0139301936
H 5.5552606296 -1.5538174376 -0.1082955827
H 4.5754624504 -0.3538669580 -0.3533585262
O 1.7296488194 0.5393710856 -2.0843397670
H 0.8877995788 0.5239755448 -2.5875527217
H 1.8371721459 -0.3749941891 -1.7652395182
O 0.6296210642 1.5363854549 0.2871608410
H -0.3207592697 1.6890422342 0.1360103489
H 0.9983964832 1.3015562224 -0.5882209206
O -0.8081167387 0.1541116518 -3.0911476397
H -1.4193903414 0.5152674795 -2.4317751887
H -0.7880206499 -0.8055870880 -2.9219701367
O 3.2424764636 -0.6512287110 2.5051600890
H 3.7703454612 -0.9889657870 1.7664804799
H 2.3398093100 -0.9477824151 2.3223268338
O -3.7837585001 -1.7048181113 2.0245579244
H -3.1673367245 -1.1091131419 2.4935803731
H -4.2659346037 -1.1052997732 1.4457329984
O 4.2477391580 1.2094547081 -0.8600395398
H 3.9123062725 1.6313466004 -0.0399809904
H 3.4846455842 1.1829723427 -1.4569500544
O 2.0553971307 -2.0064609772 -0.8389059365
H 1.6179759719 -1.7596250389 -0.0033762479
H 3.0052706921 -1.9943696115 -0.6427661481
O -1.7316401095 -1.9238276108 0.1050955243
H -2.4354062872 -2.1556389852 0.7377703246
H -1.9879227802 -1.0169990701 -0.1628186090
O 0.5688062655 -1.0031415882 1.3821590640
H 0.5703458315 -0.0903373808 1.0176694729
H -0.2388157933 -1.4199044098 1.0167905517
O -0.4250474110 -2.5829085201 -2.3259136077
H -0.9623039826 -2.5880853765 -1.5175768903
H 0.4849299098 -2.5861384287 -1.9995897761
O -1.8710738835 0.1738424176 2.9019677406
H -0.9842884106 -0.1820375417 2.7667798964
H -2.0514210349 0.6764099170 2.0882734512
