43

Cl -3.3668019788 0.3720292988 0.9424224300
O 3.7124886445 -1.4571631671 -0.8986406871
H 4.5282150103 -1.7754438172 -1.2865666151
H 3.5413730649 -0.5616709424 -1.2923899740
O 0.3381715623 -1.6292625665 1.6194203914
H -0.5294438619 -2.0858824157 1.6564885404
H 0.1257546879 -0.6765787442 1.7036152327
O -2.7093411884 -0.2224153558 -1.9818251649
H -2.9032607472 -0.0658434586 -1.0227027726
H -3.5675403197 -0.3570739708 -2.3895717994
O 2.7955348208 2.7311970155 0.0731680224
H 1.8628471276 2.9369562758 -0.0895429535
H 2.7887757972 2.2790241207 0.9406701939
O 0.9561701648 -2.0532319381 -0.9870398019
H 1.9221885952 -2.0924225006 -1.0620377954
H 0.7705860148 -1.9052175270 -0.0298191716
O 3.0962494350 0.9164554067 -1.9478788060
H 3.0505245942 1.5862631810 -1.2252758963
H 2.1996476536 0.8637698284 -2.3013919114
O -2.7461213001 2.8586828314 -0.9496030477
H -2.8138547690 2.2883364050 -1.7214921754
H -3.0288157706 2.2683184987 -0.2255361002
O 0.1670181311 0.2626078496 -2.2530043412
H -0.7791142936 0.1516991731 -2.4188870151
H 0.4371590765 -0.5607242876 -1.7914515822
O 2.5217791280 1.3511385019 2.5074196321
H 2.8148712532 0.4294700003 2.3817376900
H 1.5610481572 1.2929328281 2.5932184159
O -0.3532744148 1.0564819686 1.8564337045
H -0.1779457980 1.5664269913 1.0417218990
H -1.3149287822 0.9102894520 1.8296348628
O 3.1575204527 -1.3703266503 1.9823942730
H 2.2365123406 -1.6747830237 1.9887835616
H 3.4266876610 -1.4135442200 1.0529926826
O 0.0270333567 2.4834017141 -0.5387409677
H -0.8835954126 2.8063751931 -0.6634906906
H 0.1071551525 1.7221001293 -1.1454109440
O -2.2044774247 -2.6739330055 1.3222252750
H -2.6823870625 -1.8283606065 1.3227488880
H -2.1300583571 -2.9027994629 0.3796326677
O -1.6983670597 -2.9782537574 -1.5102775801
H -0.7353403435 -2.8719791333 -1.4777191808
H -2.0265486462 -2.1014183662 -1.7564144528
43

Cl -3.3754573695 -0.3107817593 1.0284409029
O 3.3931569149 -1.6023154900 1.0625803267
H 4.1455162903 -2.0780900810 1.4171374197
H 2.6026386721 -2.1896741987 1.1992672463
O 0.2624873788 -0.5646572935 -1.3335117340
H -0.6337326649 -0.3544232612 -1.6772209853
H 0.1197020927 -0.6447691405 -0.3667485559
O -2.3788221336 2.6009091696 1.2168269476
H -2.7279759791 1.6797865676 1.1784228682
H -3.0428180098 3.1008018489 1.6948418638
O 1.1731141974 -3.0249273904 1.4273509883
H 0.6014663532 -2.2680011046 1.6429046156
H 0.7947167145 -3.3566720350 0.5893263427
O 0.9879570544 2.2012657948 -1.1337067355
H 1.9652277958 2.2960744215 -1.1573559478
H 0.8247532460 1.2572013262 -1.3091472003
O 3.2498944726 1.2105007073 1.7974904797
H 3.2105389162 0.2515630975 1.6550344449
H 2.3436921456 1.4903828127 1.9810251964
O -2.7678258872 -2.7123444762 -1.0948854015
H -3.0133174535 -2.1746869940 -0.3237782923
H -2.7647329666 -2.0735593841 -1.8158034451
O 0.4257776322 2.0722544324 1.5834561902
H -0.4781757525 2.4050819080 1.6906676629
H 0.6248416045 2.2081655707 0.6330762028
O 3.7230403752 2.0125052765 -0.9280201819
H 3.6991128052 1.1128850466 -1.3005184445
H 3.6965864738 1.8561902519 0.0325056050
O -0.0160733770 -3.5019427815 -1.0749576440
H 0.2596046466 -2.6379967148 -1.4118591863
H -0.9827317960 -3.4048779545 -1.0111301279
O 3.1935702820 -0.7006326434 -1.6616134291
H 2.2319283151 -0.7088057063 -1.7648468791
H 3.3396583098 -1.0901032643 -0.7842190075
O -0.2849655898 -0.6378260346 1.4175130802
H -1.2629982252 -0.6147352103 1.4088238999
H -0.0050653179 0.2752416554 1.6188157459
O -2.3190919882 0.2222255414 -1.9451266833
H -2.7323927469 0.1152508457 -1.0677053308
H -2.1909383989 1.1863426057 -2.0237875846
O -1.7152480479 2.9780845893 -1.6259757326
H -0.7472160631 2.9284490244 -1.5869023944
H -1.9900601615 2.9967092120 -0.6970429632
43

Cl -3.1819536607 -1.6283520578 0.8798202299
O 2.4505956808 1.4241826864 1.2528976859
H 1.5455302671 1.6251774029 1.5543442966
H 2.5769091850 0.4705870560 1.4568187091
O -1.0511198892 1.6971056457 -1.1763020366
H -1.2872197352 0.7850375847 -1.4225518737
H -1.9227713057 2.1275769603 -1.0440625923
O -1.8640080306 -0.9777049981 -1.8569441302
H -2.2021269607 -1.2737603967 -0.9821648736
H -2.6680758367 -0.8308581793 -2.3662389239
O 3.5763444975 -2.1849695968 -0.7989705067
H 2.6752152061 -2.1961394504 -1.1529309112
H 3.9866910567 -1.4040483424 -1.2167164342
O 0.8815193056 -1.3913507755 -1.3561251003
H 0.0265887050 -1.4204783059 -1.8101460317
H 1.1957982618 -0.4682095695 -1.4466613950
O 2.9245898786 -1.2467965110 1.7351564465
H 3.1773681167 -1.6505522079 0.8769707488
H 2.0236131584 -1.5540448130 1.9043805063
O -3.1932994334 1.4240235421 2.0250806385
H -2.2299172308 1.5237034773 2.0856823369
H -3.3024478602 0.4832443808 1.8046805348
O -3.6472876316 2.4383062618 -0.5599452400
H -4.1155471837 1.6818013074 -0.9433093475
H -3.5672859899 2.2003392246 0.3860620067
O 5.2265144479 1.1537179439 0.9039740517
H 5.1823990739 0.3126847750 1.3693852384
H 4.3746232702 1.5679681778 1.1138428196
O -0.3239452140 1.3888386983 1.5613157351
H -0.5584519971 1.5587364741 0.6279458257
H -0.2406688527 0.4143577930 1.5937178504
O 4.5330885886 0.3027222880 -1.7760384172
H 4.8571233782 0.6765941983 -0.9390487284
H 3.6867539164 0.7433725372 -1.9313101575
O 1.7664280400 1.2640092806 -1.4363213159
H 2.0175360142 1.3890752659 -0.4966313321
H 0.9038311944 1.6966826449 -1.5285488200
O 0.0115468084 -1.4067599062 1.3534501577
H -0.9252235543 -1.6689406976 1.3679494569
H 0.2777050937 -1.4702929650 0.4162372303
O -4.7013044354 -0.1674299883 -1.4155904042
H -5.6321676898 -0.3947866664 -1.4412125242
H -4.3402296184 -0.6495134751 -0.6396432683
43

Cl -3.2790243037 0.7517948960 -1.1157828425
O 3.1839875845 -1.2708957521 -2.0013281177
H 3.8142309720 -1.5051295748 -2.6834556933
H 3.0354687499 -0.2889555481 -2.0807847459
O 0.5838652850 -2.1035894419 1.2330109968
H -0.2595469888 -2.5488642549 1.4106442565
H 0.4708796116 -1.1862852419 1.5686558960
O 3.0012987914 2.5159074744 0.2701137843
H 2.0765655021 2.7791957127 0.3933619611
H 3.1460592328 1.8377951786 0.9572678799
O 0.4461659543 -1.7715281411 -1.5044534218
H 1.3515259424 -1.7834481910 -1.8527918951
H 0.5381652987 -1.8998994007 -0.5374289239
O 2.6520282689 1.3200020100 -2.1847300033
H 2.8460894718 1.7627965725 -1.3277426557
H 1.6933406537 1.3952559503 -2.2948704875
O -2.5412464372 2.9815886462 1.0400369016
H -2.8885080348 2.4513623904 0.2981694905
H -2.6664111382 2.4059013507 1.8009620548
O -2.6068803111 -0.0958734917 1.8909465794
H -2.6141052029 -1.0636866963 1.8991708480
H -2.8348107418 0.1330075507 0.9678221126
O -0.2290500056 0.9336063398 -1.9480024570
H -1.2023735630 0.9877345152 -1.9057327319
H -0.0334949189 -0.0034184688 -1.7579623319
O 3.1367573701 0.4777796726 2.2381197323
H 2.2127587939 0.4113138131 2.5098175741
H 3.3220931705 -0.3628826083 1.7805715914
O 0.1364259342 0.4380235502 2.1698968564
H -0.8309715413 0.3027989114 2.2060170276
H 0.2402552671 1.1631313946 1.5201636185
O 3.4213328905 -1.9746147773 0.8139392245
H 2.5154050072 -2.2678359864 0.9907230210
H 3.4331109009 -1.7583032122 -0.1311885944
O 0.1586579105 2.5215374692 0.3248587800
H -0.7236169330 2.8545152167 0.5727417488
H 0.0199041007 1.9999675398 -0.4909247560
O -2.1475198408 -2.9184068021 1.2995368697
H -2.6291775011 -3.7260688842 1.4812425506
H -2.2688729292 -2.7303756581 0.3309115681
O -2.3599823556 -2.2771105886 -1.2827198605
H -1.4501922383 -2.1905821382 -1.6058261917
H -2.7252091360 -1.3707869540 -1.3148760506
43

Cl -3.2829269953 0.7880474223 -1.1007274115
O 3.1920459228 -0.7275768777 -1.1637581939
H 3.2308144118 -0.3089185756 -0.2863095421
H 3.1138126011 0.0241024526 -1.7841552428
O 0.6952640786 -3.4730626892 0.9493997788
H -0.1471259150 -3.4225098992 1.4204565658
H 0.5955771456 -2.8217109316 0.2351148875
O 2.9363467755 2.7114932644 0.0960538779
H 2.0051551605 2.9258144325 0.2629283965
H 3.1309543097 1.9586187830 0.6708225415
O 0.5215900691 -1.2422384848 -0.8466275599
H 1.4770696513 -1.1689175355 -1.0653854323
H 0.4075280873 -0.6773663240 -0.0485996146
O 2.6342058625 1.6580778438 -2.5276423843
H 2.7796673463 2.1414867875 -1.6926295852
H 1.6791210008 1.6876767356 -2.6671702806
O -2.5338447331 2.9817646080 1.0799748316
H -2.9068495052 2.4568230580 0.3462092384
H -2.5567411333 2.3667944811 1.8206298553
O -2.4574449061 -0.0617833662 1.8688252543
H -2.4995628277 -1.0258021829 1.9638634451
H -2.7944179003 0.1160913183 0.9683224480
O -0.3367778168 1.2141397862 -2.1865168806
H -1.3072774554 1.1956346234 -2.0806557684
H -0.0658806423 0.3368705879 -1.8699440307
O 2.9927375686 0.1209051179 1.6023684776
H 2.0280166552 0.1453096470 1.7260566447
H 3.2322209836 -0.8138172836 1.7343553015
O 0.2168032065 0.3902193895 1.3542818180
H -0.6973437624 0.2115161860 1.6597519625
H 0.1854014153 1.2901419990 0.9693859264
O 3.3779441216 -2.6752071542 1.3570032399
H 2.4677335055 -3.0245446026 1.3755020963
H 3.5910215667 -2.6136404014 0.4202577917
O 0.0883777068 2.8466060246 0.0754907110
H -0.7921252333 3.0799768559 0.4274330540
H -0.0787308788 2.3988931858 -0.7770166899
O -2.1753726839 -2.9132372903 1.5318966135
H -2.8205328571 -3.6041485908 1.6900172052
H -2.2308310745 -2.7075020750 0.5637517018
O -2.1805028902 -2.1874849495 -1.0564588876
H -1.2490654851 -1.9779241613 -1.2214576006
H -2.6366602768 -1.3297699427 -1.1583245212
43

Cl -3.2641278514 0.7520665080 -1.0915589593
O 3.1512756880 -0.6913668763 -1.2493040811
H 3.0738602972 -0.2638382989 -0.3818417876
H 3.0648297850 0.0532874128 -1.8796772557
O 0.5329282267 -2.2563970015 1.3956349080
H -0.3437255270 -2.6591722641 1.5059276865
H 0.4338270752 -1.3227971195 1.6775720220
O 3.0047255465 2.7343431602 -0.0033149799
H 2.0630408209 2.8579820743 0.2027293306
H 3.2680064583 1.9891182087 0.5523652037
O 0.5634480147 -1.7286680527 -1.3611270761
H 1.4971002227 -1.4776775173 -1.4972645084
H 0.5225479804 -1.9341075471 -0.4080642540
O 2.5621931519 1.6540107439 -2.6158655878
H 2.7646774650 2.1532142082 -1.8031631873
H 1.5970593351 1.5829346712 -2.6239032282
O -2.4510569413 2.9824728928 1.0310432634
H -2.8192003456 2.4492531110 0.3010837689
H -2.5883295980 2.4269370577 1.8044605525
O -2.5767308687 -0.1376497722 1.8909519046
H -2.6229452833 -1.1041913173 1.8857290661
H -2.8156609719 0.1132165405 0.9759899599
O -0.2289673776 0.9308359332 -1.9605028980
H -1.2026420349 0.9726897577 -1.9113447119
H -0.0148124848 0.0098266851 -1.7200019969
O 3.0652549392 0.1837021407 1.5929290605
H 2.1837608297 0.2210373191 1.9887180749
H 3.3215049865 -0.7540929927 1.6400202729
O 0.1580369917 0.3907143146 2.1335860546
H -0.8083205900 0.2420155103 2.1758794416
H 0.2461475499 1.1114239066 1.4751749646
O 3.3496661893 -2.6060045681 1.1068298358
H 2.3910418279 -2.7148168842 1.2193103996
H 3.4711962228 -2.4477847625 0.1637030410
O 0.2236228572 2.4648457627 0.2989881157
H -0.6452956036 2.8283416201 0.5531328115
H 0.0629796409 1.9627356620 -0.5279221895
O -2.2028762045 -2.9639999132 1.2543773675
H -2.7107070932 -3.7648889751 1.3890192117
H -2.2669002829 -2.7499029216 0.2858364750
O -2.2791813087 -2.2474643223 -1.3169026227
H -1.3652610118 -2.1419550706 -1.6182443173
H -2.6568702106 -1.3456055015 -1.3341613567
43

Cl 2.7373805027 0.1051304839 -1.5696298741
O -0.2634610178 -0.8186674328 -1.3888842563
H 0.6071840629 -0.5746345828 -1.7553823516
H -0.1378175112 -0.6698109856 -0.4309216573
O 0.8541114037 3.3496534823 1.3760319241
H 1.5104042934 2.6767965304 1.6095765472
H -0.0010428615 2.9621629217 1.6103053787
O -4.3512327119 0.7565700196 -0.9003698251
H -3.6491422626 1.3706268935 -1.1538933640
H -4.0076102150 -0.1094595116 -1.1884187017
O 0.1276119680 -0.2932525416 1.4084483803
H 0.9993604914 0.1304539736 1.5395417859
H -0.5141308462 0.4515009242 1.4810141045
O 0.8725837726 2.9956496875 -1.4590077009
H 0.9480908172 3.2070121220 -0.5102274734
H 1.4900397390 2.2649045726 -1.6082508733
O -0.1506307953 -3.7048194327 -0.4778674144
H -0.2907730268 -2.9685372201 -1.0885534977
H 0.7535141244 -3.5473239827 -0.1668400305
O -3.0226779999 -1.6895272834 -1.3264632484
H -2.1634177498 -1.4316763976 -1.6859138742
H -2.8086506916 -1.9235831108 -0.4081798038
O -3.8732198688 0.1691254713 1.8075528415
H -3.5362778739 -0.7331989715 1.7697350546
H -4.1752333644 0.3660064641 0.8979748380
O 2.5608672830 1.0377034455 1.3970193229
H 3.3573803429 0.5688716354 1.6899869010
H 2.5986795823 0.9186900711 0.4241910731
O 2.2505636325 -2.3309110472 0.4687414357
H 1.6007421315 -1.8901061332 1.0292377651
H 2.3794420846 -1.6996439204 -0.2674856227
O -1.9370746706 -2.3500860559 1.3001349036
H -1.4284404482 -3.0319600498 0.8254288518
H -1.2527040588 -1.7160900224 1.5595691459
O -1.6274183380 1.7734917706 1.4020882146
H -2.4464679537 1.3337575948 1.7038629363
H -1.7168364533 1.8416296627 0.4292970581
O -1.6061240182 1.7705261497 -1.3950998044
H -0.8108381121 2.3286847512 -1.5306059368
H -1.2659689367 0.8722917852 -1.5363869704
O 4.7273895330 -0.8247349155 1.0997259357
H 4.6644658301 -0.4971818085 0.1927788480
H 4.0890975792 -1.5524590356 1.1015927821
43

Cl -3.3315240336 -0.3090376826 1.1054331222
O 3.9501671570 -1.3839307429 1.8076252445
H 4.4267130586 -1.2439299308 0.9850978041
H 3.2193736243 -1.9748037742 1.5639541622
O 0.0025810454 -0.5303961264 -1.6194294822
H -0.9121460886 -0.2929200526 -1.8861607380
H -0.0650721383 -0.6181158697 -0.6460236470
O -2.3317733162 2.5975954170 1.2704179883
H -2.6859465715 1.6775332202 1.2443511539
H -2.9558103600 3.0946926335 1.8018804733
O 1.6294600073 -2.6539950389 0.7573685313
H 0.9667541530 -2.0094891878 1.0696389605
H 1.1215930155 -3.2145654304 0.1430751743
O 0.9826272064 2.1363188109 -1.2765732931
H 1.9605360085 2.0922554141 -1.2085196780
H 0.7097606501 1.2297840974 -1.5063592846
O 3.2608143348 1.4280726336 2.0457810873
H 3.3651392158 0.4680083879 2.1419923586
H 2.3129638050 1.6097754697 2.1050104224
O -2.8637721328 -2.7232547852 -1.0066309897
H -3.0528836853 -2.1491742452 -0.2453550166
H -2.9562358821 -2.1310751114 -1.7594628140
O 0.4623218373 2.0376530356 1.4644230216
H -0.4333002344 2.3815705406 1.6053405204
H 0.6363893500 2.1693319044 0.5094119195
O 3.6387168258 1.5612466870 -0.7699141645
H 3.5101766331 0.6172866745 -0.9655667974
H 3.6091833532 1.6094454875 0.2037572873
O -0.1088533290 -3.4939531273 -1.3078840328
H 0.0622780145 -2.6267151355 -1.7003613803
H -1.0544280642 -3.4336086460 -1.0894856071
O 2.8487498421 -1.1404467943 -1.3723001101
H 2.0411383458 -0.9084975209 -1.8480757277
H 2.5144067297 -1.6682506419 -0.6253143073
O -0.2142876465 -0.6486600674 1.1868422965
H -1.1854261126 -0.6716312830 1.2926853408
H 0.0514657655 0.2655984368 1.4061464087
O -2.5995008689 0.3246705557 -1.9688175942
H -2.9316076329 0.1881093869 -1.0625996484
H -2.4075063076 1.2798447759 -2.0041771350
O -1.7588689231 3.0233229289 -1.5692476862
H -0.7924017221 2.9634127589 -1.5830385775
H -1.9894494828 3.0266643259 -0.6280726968
43

Cl -3.3575228295 -0.3071457342 0.8264391275
O 3.7243320714 -1.3007294190 -0.3334719228
H 4.5484700993 -1.7262192974 -0.0920594124
H 3.0503440371 -1.6251275542 0.3193303830
O 0.1282953663 -0.2224125106 -1.4958520422
H -0.7785992163 -0.0106689127 -1.8107222982
H 0.0141477325 -0.4371301222 -0.5513589644
O -2.5302218592 2.6327126073 1.1538371915
H -2.8179509554 1.6921725008 1.0637869396
H -3.2545466236 3.0771457480 1.5974987757
O 1.8478920581 -2.2372809902 1.3450497126
H 1.1016544739 -1.6200410650 1.4495526458
H 1.4541705483 -2.9523246181 0.7984813320
O 1.1632738442 2.3035935584 -0.9206972339
H 2.1100940389 2.1835090767 -0.7059619605
H 0.8717499403 1.4201083944 -1.2247352092
O 2.5889656837 1.1062965941 2.7231199271
H 1.7312066759 1.5367630686 2.5772608696
H 2.3984329190 0.1636558932 2.7327935607
O -2.0480347711 -2.7782426491 -0.8381438980
H -2.4977883660 -2.1637504516 -0.2341213987
H -1.9430201648 -2.2691209038 -1.6470188386
O 0.2351850392 2.3122648235 1.6735972464
H -0.6963684121 2.5829667620 1.6826628421
H 0.5365483854 2.4139124262 0.7436359137
O 3.6675403145 1.5575748498 0.0679462941
H 3.7490442143 0.6250138555 -0.1908204472
H 3.4211683422 1.5057452405 1.0064378061
O 0.6174976084 -3.9129629062 -0.4814544010
H 1.0367993609 -3.4747787030 -1.2450468544
H -0.3073495195 -3.6172285024 -0.5089506577
O 1.8747244361 -2.2459942676 -2.4156371191
H 1.2372686694 -1.5271344505 -2.2586569759
H 2.6504850300 -1.9713921442 -1.9068556716
O -0.2613858706 -0.4268808275 1.3375738450
H -1.2312839270 -0.5411615826 1.3254950009
H -0.1168081498 0.5182256775 1.5301091623
O -2.4302510268 0.5141725542 -2.1556079320
H -2.8835817284 0.2936238653 -1.3228765472
H -2.2429018717 1.4674548024 -2.0870352664
O -1.5885051447 3.1925144724 -1.5355586112
H -0.6259534874 3.1420685035 -1.4570495458
H -1.9208910106 3.1460164504 -0.6262704680
43

Cl -3.0145182132 -0.4130906954 1.2668417224
O 2.6255109129 -1.2035787510 2.7660170940
H 2.8662981100 -1.9089577221 2.1552431408
H 1.6784836761 -1.0886458877 2.6042808828
O 0.0217976745 -0.5147740438 -1.6327289259
H -0.9193650349 -0.2911304407 -1.8111359335
H 0.0553365707 -0.6307042508 -0.6667354769
O -2.2690078744 2.5700093959 1.2751818605
H -2.5526499165 1.6257155138 1.3027826737
H -2.8773325796 3.0382786845 1.8490967547
O 1.7973828052 -2.7545473445 0.3269742596
H 1.1841240501 -2.0979587267 0.6927522734
H 1.2264881768 -3.2823024223 -0.2592338550
O 0.9969018927 2.1707392516 -1.4253254237
H 1.9756374438 2.1144206397 -1.3378048367
H 0.7206978834 1.2597346242 -1.6283167312
O 3.2972480671 1.5051028940 1.9352165161
H 3.2160152556 0.5872923249 2.2412850013
H 2.3908297112 1.8420663947 1.9462674943
O -2.8419619199 -2.7285307873 -1.0150189385
H -2.9221647212 -2.2063210762 -0.1998653622
H -2.9883035186 -2.0779998207 -1.7094072966
O 0.5266752064 2.0902773111 1.2991371164
H -0.3711318090 2.4156508324 1.4691327494
H 0.6727200013 2.2164660620 0.3371809982
O 3.6252586427 1.5843831082 -0.9029656792
H 3.5548735688 0.6492540758 -1.1641145507
H 3.6379623140 1.5675842106 0.0713604382
O -0.1341282149 -3.4887316077 -1.6118374463
H 0.0246127051 -2.5887559890 -1.9281503321
H -1.0615469841 -3.4399100114 -1.3238432689
O 2.9298160957 -1.0688212872 -1.7083011896
H 2.0547356118 -0.8633945846 -2.0584086990
H 2.7331767191 -1.6798498281 -0.9770487197
O 0.1139716160 -0.6472749742 1.3098724277
H -0.8535611955 -0.7173983678 1.4363668227
H 0.2957403424 0.3159333735 1.3518385952
O -2.5999045025 0.2793453676 -1.8403729345
H -2.8545159348 0.1500160878 -0.9082465176
H -2.4356778153 1.2380064341 -1.9117300533
O -1.7920804783 2.9949177097 -1.5784111218
H -0.8264265074 2.9604806738 -1.6423493961
H -1.9762475050 3.0148708459 -0.6274685845
