43

Na -0.1016175669 1.3528022309 -0.2542223857
O 3.1456986613 -0.2890871471 1.7499554822
H 3.2023602588 -1.2356626084 1.5578039320
H 3.5806022588 0.1324955159 0.9959453481
O -2.0515386824 0.3652709925 2.9949925227
H -2.2363242674 1.1163617822 2.4048692988
H -2.5290239375 0.5223859520 3.8128391429
O 2.4518234946 -1.5520865381 -1.9737992979
H 2.5685808426 -1.9251063346 -2.8511360625
H 1.5083707369 -1.2929252760 -1.9069399485
O -1.2271902392 2.2487336563 -2.1039639891
H -0.9369057023 2.4980513925 -2.9827615829
H -2.1897982204 2.1516301621 -2.1359364617
O 3.9656057675 0.5689141493 -0.9193611294
H 3.5655006503 -0.1710209849 -1.4120359922
H 4.8590081193 0.6823891554 -1.2515082163
O -3.0290337755 -1.1190382087 -1.3242411099
H -3.5431049284 -1.7974386747 -1.7689838759
H -2.9470232047 -1.4033275933 -0.3760827141
O -2.6362479818 -1.8178294586 1.2119472198
H -2.5526202443 -1.1336155846 1.8957950048
H -1.8133585210 -2.3248198976 1.2627030366
O 1.8812014243 2.4103006036 -0.7480909332
H 2.1131789590 3.3384486741 -0.8032095429
H 2.7091468069 1.9098293044 -0.8478645995
O -2.1516246292 2.2013691108 0.8850325341
H -2.8492942005 2.0270504073 0.2210496561
H -2.1551941700 3.1515280458 1.0266486097
O -3.7749817718 1.4824332892 -1.2304704347
H -4.7058690732 1.6741900377 -1.3627798495
H -3.6567845783 0.5101675395 -1.3194353552
O 0.5135063307 0.2694246700 1.7630804563
H 0.0202970158 0.4076441132 2.5806366500
H 1.4769447202 0.2081063444 1.9479827040
O -0.1236193821 -0.8450536096 -1.2679295822
H -1.0044691883 -0.9420825008 -1.6596139746
H -0.1073920687 -1.4854215600 -0.5213199662
O 0.1286604528 -2.3633615837 0.9767320481
H 0.3180085245 -1.5187886987 1.4292258065
H 0.9654519333 -2.8514748821 0.9670757156
O 2.8705753948 -2.9472587635 0.5168143531
H 3.4297608410 -3.7262139275 0.5641802467
H 2.8587053048 -2.6585639280 -0.4103513620
43

Na 0.5389719866 1.8380047836 -0.8811968431
O 3.5216655445 -0.3824202068 1.7519966212
H 3.0674590841 -1.2488378344 1.7204230345
H 4.0576981739 -0.3677720159 2.5482984396
O -1.1119470551 0.6112620806 2.7971265185
H -1.8355618144 1.1203357431 2.3766099336
H -1.2531994813 0.6590874735 3.7452724856
O 2.1040584402 -1.7875579888 -1.3657595622
H 2.8684542604 -1.2022063730 -1.4635774371
H 1.3152382676 -1.2442588395 -1.5336937044
O -1.2705852399 3.1730108650 -0.5132162866
H -1.4986047121 4.0784152827 -0.7291299762
H -1.9415802166 2.8600062671 0.1191780893
O 4.2954039022 0.0645685529 -0.8993125296
H 4.2131784419 -0.0361813975 0.0671333824
H 5.2217376414 -0.0629984168 -1.1162914067
O -2.6351110744 -1.3643563024 -2.4380298277
H -2.7563257074 -1.7330295024 -3.3158556615
H -2.7959085188 -2.0816103802 -1.8023723101
O -2.9969653411 -2.6619490256 0.0319240216
H -2.1772794194 -2.4973809158 0.5385649029
H -3.3684863858 -3.4874088745 0.3501499381
O 2.5267316071 1.9450876049 -1.9896704670
H 2.8619179683 2.4232671447 -2.7496943479
H 3.2631341061 1.4039289211 -1.6564909166
O -3.0261901216 1.9138532437 1.2862995850
H -3.4350064625 1.2015858505 0.7296518199
H -3.7558562347 2.3963408050 1.6832370482
O -4.0389983382 -0.0168891708 -0.2274428793
H -3.8133257593 -0.0134212396 -1.1652449556
H -3.8858742449 -0.9367768872 0.0392346013
O 1.1985709792 1.2285502129 1.2108576099
H 2.0172360525 0.8078051069 1.5088507194
H 0.5445600754 1.1043757989 1.9134438414
O -0.3209903557 -0.3000725693 -1.2453204629
H -1.0588695498 -0.5934731582 -1.8079648124
H -0.4862343069 -0.7165029220 -0.3779445501
O -0.7209424822 -1.6743938418 1.2035378364
H -0.8603946935 -0.9913764917 1.8826836917
H 0.1651023388 -2.0537567550 1.3455926408
O 1.9521365034 -2.5729630351 1.1599205099
H 2.1696260796 -3.4993319745 1.2889739836
H 2.0329560406 -2.3871836542 0.1858298397
43

Na 0.4441228778 1.9053002686 -0.7958762994
O 3.4130229747 -0.4492969439 1.6756281991
H 2.9495356857 -1.2898512453 1.4835481166
H 3.9144705100 -0.5720557549 2.4846097711
O -1.0688230100 0.6584452591 2.9377896140
H -1.8063879433 1.2111870892 2.6059832338
H -1.1312267409 0.6582981377 3.8955117139
O 1.4999217800 -1.9315876591 -1.7143278437
H 1.6504630769 -0.9976270023 -1.9270293364
H 0.6265677816 -2.1571697875 -2.0686894889
O -1.1732237511 3.3911052641 -0.1443605199
H -1.3117999542 4.3344017209 -0.2416137704
H -1.8568716465 3.0752862876 0.4718216134
O 4.3120007550 0.8329578420 -0.6390356302
H 4.1646517794 0.3468481866 0.1904788531
H 5.2162601452 0.6640436054 -0.9096734245
O -1.2601020216 -2.2631847057 -2.5161597935
H -1.5785336161 -2.5557900369 -3.3728805380
H -1.9135573335 -2.5527641167 -1.8504795830
O -2.8883435666 -2.5947762189 -0.2719665980
H -3.3285471507 -3.3992952894 0.0121279137
H -2.2128986279 -2.3868057592 0.4018712819
O 2.1024840142 0.9177248881 -2.1510766992
H 2.2962603774 1.1077800185 -3.0718704271
H 2.9716733853 0.9034173341 -1.6848304399
O -3.0057048549 2.1100943012 1.6205599153
H -3.4140803908 1.4410270601 1.0151289884
H -3.7267548895 2.5962309665 2.0276288812
O -3.7176750790 0.3389155995 -0.2208875936
H -2.8642114582 0.3549308285 -0.6869021828
H -3.9002306833 -0.6006024771 -0.1036395268
O 1.1810840954 1.2719268474 1.2511412245
H 0.5382322744 1.1652719877 1.9670833555
H 1.9770521580 0.7887879992 1.5180474939
O -1.0303641945 0.1307466448 -1.0706461300
H -1.0913377287 -0.4923002924 -1.8121096809
H -0.8544996257 -0.4397574411 -0.2948642519
O -0.8142626021 -1.5294381223 1.1877766436
H -0.9093362895 -0.8997207186 1.9237230769
H 0.0758929623 -1.9196669179 1.2449642441
O 1.8039623776 -2.5230875810 0.8588809595
H 2.0267523769 -3.4506069315 0.9698580022
H 1.7400613797 -2.3603866031 -0.1183275652
43

Na -1.6561564336 -1.1969143163 -0.3580574504
O 3.7686798855 1.1424491724 -0.0458191684
H 4.6809947296 1.3629791542 0.1561500848
H 3.3600465496 1.9448567325 -0.4413172817
O 0.9585431184 -2.0222716794 2.1733942475
H 1.2715467375 -2.5473869920 1.4219522846
H -0.0033583122 -2.1276856326 2.2007077291
O -0.3768409769 2.7724686228 -0.7247492787
H -0.3523514336 2.8670995456 0.2433729587
H -0.2077625004 1.8212059676 -0.8716574179
O 2.8594099936 -0.9199646799 -1.6313042198
H 3.3344597856 -0.2237898883 -1.1324820277
H 3.2267571927 -0.9259513612 -2.5183390013
O 2.3846913375 3.1657268645 -1.2033495776
H 1.4153182419 3.2007268376 -1.1209128358
H 2.6656282204 3.9951205371 -1.5936198164
O -3.2175855461 -0.2592610041 -1.7449383554
H -3.7074542486 -0.5194079125 -2.5262544194
H -3.3227397045 0.7030114623 -1.6515707502
O -1.9651146049 -1.9716978308 1.9213692569
H -2.3432016024 -1.0946656122 2.0940319849
H -2.5187389340 -2.6162180611 2.3675094034
O 0.3037198367 0.0451783952 -0.7161860843
H 1.0012549069 -0.2794597235 -1.3054960720
H 0.7648071963 0.2012919813 0.1361284402
O -0.2983192427 2.4104091774 2.1057788702
H 0.4847581227 1.8240658793 2.1545268408
H -0.2878030132 2.9790085317 2.8786840498
O -2.2998669568 0.6400560693 1.2297841179
H -1.6806751617 1.2572550256 1.6573839467
H -2.8977650775 1.2046938217 0.7200691798
O 1.5873365301 0.5354128706 1.6744192441
H 1.4872794571 -0.3890263975 2.0010768352
H 2.5002931489 0.6763804851 1.3822859482
O -3.1457577822 2.3966970575 -0.9174058178
H -3.7295731389 3.1379520935 -1.0919970313
H -2.2284990471 2.7251338235 -0.9853771096
O 1.9597168142 -3.1880724705 -0.2957035655
H 2.5667690319 -3.9311389244 -0.2595553729
H 2.4152249574 -2.4715516809 -0.7772859251
O -0.7101260821 -3.1399765400 -1.1626776528
H 0.2196048138 -3.3175697968 -0.9407674183
H -1.0392975566 -3.9201752826 -1.6114763691
43

Na 0.6450892557 2.3471508862 -0.3337476098
O 3.3636158669 -0.7641265891 1.2934356515
H 2.8469965025 -1.5922776863 1.2425243275
H 4.0670643204 -0.9073617776 1.9314919638
O -1.0198950759 0.9106979927 3.1046938762
H -1.7720958320 1.2468704791 2.5840954777
H -1.2268614395 1.0756116629 4.0274635733
O 1.1707667685 -1.5264694917 -1.7451147169
H 2.0387030058 -1.1403834791 -1.9343317427
H 0.5669849868 -0.7763973202 -1.5810209982
O -1.1748783034 3.5957928522 0.2357612869
H -1.4000555367 4.5248457956 0.3044864287
H -1.9206362831 3.0986949919 0.6127207648
O 3.7104909131 -0.2022785165 -1.4312762432
H 3.7637077655 -0.3640035574 -0.4700074089
H 4.5669897433 -0.4318103006 -1.7997312079
O -0.7239703266 -3.6240216861 -1.8149344944
H -0.0500135303 -3.0107857120 -2.1405963011
H -0.8492045450 -4.2844431801 -2.4997846442
O -2.8002677392 -2.3553498979 -0.3303628943
H -2.2135163297 -2.8515836523 -0.9258321292
H -2.2656114871 -2.2108578227 0.4638186846
O 2.3709617703 2.2416073419 -1.8109982611
H 2.7191414118 2.8098749486 -2.4997273379
H 2.9618861645 1.4711449929 -1.7585694102
O -3.0628181310 1.7773073342 1.3061540607
H -3.2581016503 1.1704473782 0.5583360653
H -3.9147658384 2.0325102864 1.6691964053
O -3.3740742048 0.1539053930 -0.8958953826
H -3.2707308219 -0.8269902381 -0.7586016074
H -4.0730790848 0.2817643910 -1.5406030479
O 1.4167554516 1.3971446074 1.5844451232
H 0.7485100043 1.2484543869 2.2680086058
H 2.0823304191 0.7007260100 1.6683192299
O -0.5843878782 0.3924130240 -0.7560642795
H -1.4938114007 0.4193893266 -1.0967064707
H -0.6523170071 -0.1476757275 0.0594619637
O -0.8115949457 -1.3197841111 1.4408441901
H -0.8410229475 -0.7844883588 2.2482803271
H 0.0089236603 -1.8396553997 1.4455150738
O 1.5154270086 -2.7091186071 0.7040039347
H 1.4682458423 -3.6685654052 0.6938503507
H 1.3725763483 -2.4096277848 -0.2217260541
43

Na 0.3352205020 1.6977063035 -0.7757472965
O 3.3828795827 -0.5094543771 1.6667463671
H 2.8875264696 -1.3333323501 1.4777019460
H 3.8963591400 -0.6553211739 2.4642324382
O -1.1569971756 0.6786816557 2.9782281364
H -1.7760473787 1.3642680866 2.6566456168
H -1.2350611502 0.6629424545 3.9347035421
O 1.4796224772 -1.9046019248 -1.7212231167
H 1.6779084217 -0.9847818306 -1.9521625038
H 0.6197747774 -2.1066346717 -2.1255925756
O -0.9589196418 3.5106051317 -0.2668504407
H -0.8636973954 4.4579147229 -0.3763893006
H -1.5813291958 3.3767450969 0.4683342574
O 4.2558009952 0.8346016153 -0.6187591354
H 4.1091979952 0.3176348033 0.1927930322
H 5.1597016692 0.6746357415 -0.8960154678
O -1.1977247080 -2.2488626070 -2.6068191087
H -1.4709347902 -2.5705335622 -3.4683799704
H -1.6296530800 -2.8159033661 -1.9313333237
O -2.1417509337 -3.4994382535 -0.4013427438
H -2.9577595921 -3.9567029779 -0.1908867756
H -1.9430096772 -2.9084620350 0.3436123666
O 2.0631161959 0.9228080756 -2.1464022010
H 2.9281734331 0.9205893198 -1.6700856470
H 2.2561471936 1.1588847131 -3.0564364736
O -2.7487111491 2.5823155315 1.7173149100
H -3.2861696426 2.0548273308 1.0779127404
H -3.3600884364 3.1346998183 2.2105574821
O -3.8122319420 0.9642454518 -0.1120239781
H -4.4752137414 1.1688795861 -0.7741524222
H -3.0245256760 0.6340489266 -0.5843496137
O 1.1012287910 1.1442096070 1.2818848056
H 0.4752250101 1.0398348904 2.0134068870
H 1.9185873967 0.6974337419 1.5479319636
O -1.3309645633 0.0460275160 -0.9986155000
H -1.3608719463 -0.5769046889 -1.7450742048
H -1.1710620370 -0.5299882736 -0.2186200065
O -0.9781785957 -1.5542436465 1.2247528197
H -1.1156999047 -0.9327446726 1.9583970901
H -0.0532607389 -1.8582122713 1.2711694769
O 1.6637352959 -2.4842600911 0.8643984154
H 1.8039329619 -3.4276677417 0.9786901523
H 1.6258213946 -2.3223963555 -0.1149463868
43

Na 0.4030431201 1.7891543094 -0.8446787513
O 3.4803629215 -0.4577254287 1.6744004994
H 3.0055133437 -1.2979853682 1.5024726156
H 3.9541361760 -0.5565724139 2.5029337423
O -1.0205408823 0.6440622262 2.9295190025
H -1.7736782559 1.1439574764 2.5637295177
H -1.0665201134 0.7276321721 3.8845395643
O 1.5070376609 -1.8411583459 -1.6280681672
H 1.7175153241 -0.9245222098 -1.8653014690
H 0.6082552944 -2.0103167382 -1.9512978233
O -1.0923277023 3.3699240521 -0.0589826269
H -1.0632522349 4.3239037726 0.0282826684
H -1.8093960337 3.0606132658 0.5166811883
O 4.3951359530 0.8447565083 -0.6235205970
H 4.2362072898 0.3521054371 0.2002794136
H 5.2873272463 0.6363424396 -0.9064901644
O -1.2137663492 -2.1669153374 -2.3983407556
H -1.4909884790 -2.6723684246 -3.1654799609
H -1.8024970849 -2.4061284936 -1.6572697715
O -2.7324910994 -2.3245942288 -0.0760160575
H -3.2493716705 -3.0817194730 0.2105995279
H -2.0150421975 -2.2039393946 0.6073371173
O 2.1732070901 0.9324430576 -2.1228746933
H 2.3523503352 1.1281974313 -3.0452081598
H 3.0446576188 0.9326351831 -1.6611814675
O -3.0334108975 1.9926793423 1.5256913953
H -3.4212534477 1.3570580545 0.8883223165
H -3.7701100033 2.4242411516 1.9655107738
O -3.8056421321 0.1973153648 -0.4005771883
H -4.6720666147 0.1881800745 -0.8140010329
H -3.5488645184 -0.7377410936 -0.2542121194
O 1.1849594951 1.1492323041 1.1802244885
H 0.5486220832 1.0522020608 1.9031744872
H 1.9977149173 0.7043142450 1.4624306932
O -1.2857678394 0.6233652302 -1.8347748276
H -1.2375914765 -0.2753076944 -2.1939513723
H -2.1905140545 0.7054308063 -1.5064800661
O -0.8459800013 -1.9425530161 1.7091220354
H -0.8686862711 -1.0912528494 2.1725667372
H 0.0831144721 -2.1274155353 1.4919209372
O 1.8422572868 -2.5095198639 0.9136820980
H 2.0997525266 -3.4333039479 0.9647870046
H 1.7454133558 -2.2964485153 -0.0517321756
43

Na -1.4172560711 -1.6023249690 -0.9845999484
O 3.5521477846 1.2190196034 -0.2183419016
H 4.4037076575 1.6545074079 -0.1383637054
H 2.9912492067 1.7847543210 -0.7755305255
O 0.8833592987 -1.9771460586 2.1167093889
H 1.3002388150 -2.6564459830 1.5633881985
H -0.0683824008 -2.0327546879 1.9404271083
O -0.4373541035 3.7912403514 -0.0419599262
H -0.4482722065 4.7500037950 0.0220497302
H -0.2910418713 3.4555786427 0.8713965562
O 2.7827335611 -1.4223009668 -1.2654152782
H 3.3314383152 -0.6921030924 -0.9500643020
H 1.8948475326 -1.0389973521 -1.3265548048
O 1.4433457763 2.4882167557 -1.6805656955
H 0.8554144041 3.0756783027 -1.1704258303
H 1.5483474568 2.8806331594 -2.5506349928
O -2.9080967169 -0.1592829097 -1.9441557432
H -3.6684240398 -0.2368582078 -2.5226350075
H -2.8931995957 0.7597966864 -1.6304802009
O -1.8777456420 -1.6959508842 1.3048402974
H -2.1049578998 -0.7678041116 1.5582687100
H -2.5113071654 -2.2636016536 1.7495013406
O 0.2482951472 -0.0068685342 -0.9003094704
H 0.4545626352 0.7730126457 -1.4354793458
H 0.5881496046 0.2218245882 -0.0103399583
O -0.1126551365 2.5371503460 2.3595200443
H 0.5540494509 1.8276278229 2.1993799876
H 0.0751259334 2.9218219152 3.2187945808
O -2.4052736688 0.8806964311 1.7627337696
H -1.7094112702 1.4395925467 2.1393419071
H -2.7085413256 1.3538930751 0.9746019355
O 1.4561927115 0.5544820967 1.5368548868
H 1.3814765774 -0.3820094572 1.8491786014
H 2.3522026064 0.7060492925 1.1976904835
O -2.8336514151 2.3957442464 -0.6879472347
H -3.5831982829 2.9936443932 -0.7454422094
H -2.0423894606 2.9540572962 -0.5825345231
O 2.0406316093 -3.6207510815 0.0763579536
H 2.6574890326 -4.3483907545 0.1805642925
H 2.5106663546 -2.8935506170 -0.3923113570
O -0.3270891006 -3.5575192585 -1.3697022490
H 0.5058695167 -3.7396124534 -0.8940744666
H -0.4154551123 -4.2438278129 -2.0327878360
43

Na 0.2794804839 1.7401957165 -0.6066050288
O 3.3091458039 -0.4841965428 1.6978153810
H 2.9707532450 -1.3498143650 1.3885775831
H 3.8203354865 -0.6428442220 2.4946176581
O -1.3252918708 0.0246410462 2.9713965234
H -2.1210629544 0.3038578406 2.4812306806
H -1.5086515950 0.1578655196 3.9041023304
O 1.4448064071 -1.8429430206 -1.8470505919
H 1.6119525857 -0.9013086160 -2.0077150260
H 0.5535557532 -2.0236483928 -2.1860820996
O -0.8857596844 3.6609177579 -0.8105248462
H -0.5993436436 4.5675164845 -0.9293560070
H -1.7278795112 3.7022162636 -0.3138778410
O 4.1320794102 1.0597266660 -0.4844158165
H 4.0112040992 0.5081458928 0.3079976265
H 5.0626834996 1.0284349944 -0.7128858364
O -1.3178889522 -2.0872849058 -2.5864739368
H -1.6592224496 -2.2505232235 -3.4682004343
H -1.7992757726 -2.6805005528 -1.9706368309
O -2.4732457755 -3.3204064900 -0.4697767698
H -2.7355967148 -4.2286141130 -0.3078409152
H -1.8842753961 -3.0570427030 0.2583620151
O 1.9689545041 0.9953503990 -2.0538986285
H 2.1266272947 1.3140035239 -2.9455024944
H 2.8348520139 1.0374989561 -1.5832249900
O -3.1558989001 3.4724886339 0.7036697488
H -3.3848204951 2.5434227137 0.8621875683
H -3.9809679994 3.9480759450 0.5911366966
O -3.2806215917 0.6482965095 1.0539185128
H -4.0819703172 0.1213360161 0.9986813333
H -2.7103378708 0.3683395342 0.3066311769
O 0.9122928592 1.0453800689 1.4597105214
H 0.2477075203 0.7978070598 2.1187650193
H 1.7345016070 0.5955321250 1.7049069747
O -1.2659652423 -0.0506006338 -0.6748887548
H -1.4277954579 -0.5451131069 -1.4970862139
H -0.9096580977 -0.7270985467 -0.0618195646
O -0.6347974081 -2.0486851507 1.1836110391
H -0.7886889957 -1.5574004727 2.0058967595
H 0.2971899533 -2.3302124241 1.1687006201
O 2.0369704823 -2.6598079563 0.6060977923
H 2.3960304923 -3.5502861189 0.5946576847
H 1.8666813897 -2.4071055061 -0.3394155313
43

Na 0.4808583564 1.7693090447 -0.8302111662
O 3.4139603040 -0.4314130662 1.8056960692
H 3.0584896483 -1.3377880194 1.7079174221
H 3.9065447874 -0.4051408281 2.6294244055
O -1.3528422431 0.2813681443 2.4167259375
H -2.0441022695 0.3930135055 1.7373643116
H -1.6995827846 0.6652080578 3.2255258686
O 2.3273780573 -1.8116338290 -1.4298076322
H 3.0437567604 -1.1609920625 -1.4530661075
H 1.5094678651 -1.3220548661 -1.6158635472
O -1.4521898282 2.9901556825 -0.9140325316
H -1.7204331588 3.6509453957 -1.5545952967
H -2.1028426636 3.0428237180 -0.1871720143
O 4.2937866378 0.2120505669 -0.7725125366
H 4.1570597369 0.0599520382 0.1810993649
H 5.2396215989 0.1668018820 -0.9299281523
O -2.7604842352 -1.0679633148 -2.1552192368
H -3.1804469970 -1.1806959288 -3.0105475244
H -2.9650412380 -1.8562079627 -1.6230194227
O -3.0566831774 -2.7074227722 0.0788260290
H -2.1617262936 -2.7110452567 0.4683090059
H -3.4586080294 -3.5543118349 0.2837550715
O 2.4849707439 2.0442991547 -1.8784913530
H 2.8460008243 2.6263268251 -2.5486521436
H 3.2276490464 1.5154122220 -1.5394054202
O -3.3107929315 2.8221937357 1.1302303032
H -3.7310715039 1.9651833656 0.9691439564
H -4.0071202536 3.4407689348 1.3609010470
O -3.3444357471 0.1414436134 0.4215679384
H -3.1316140468 0.1619953617 -0.5229628726
H -3.6166648375 -0.7765047864 0.5648493176
O 1.0878467883 1.1876739981 1.2777341744
H 1.8690609068 0.7104801027 1.5907501550
H 0.3425992089 0.9178451579 1.8351430560
O -0.1743727853 -0.4457673227 -1.2644017841
H -0.9619761529 -0.6461595229 -1.7965212466
H -0.3104022108 -0.9392124778 -0.4331939047
O -0.5589644580 -2.0339068839 1.0609577305
H -0.7176443144 -1.4172280630 1.7930437028
H 0.3248408789 -2.4229859170 1.1919500937
O 2.1462631743 -2.7664572551 1.0354799103
H 2.4697865962 -3.6654430762 1.1313659683
H 2.2466400290 -2.5194042510 0.0772715254
