43

Li -0.6736400167 -1.4924056963 -0.2089407754
O 1.8601023847 -1.2071694522 2.2953613654
H 1.6675172898 -1.8182496717 1.5714885771
H 2.1933791678 -0.4085132824 1.8564421165
O 3.0213145030 0.9390862153 0.6425730336
H 2.4633347644 1.7191589106 0.4271258740
H 3.8746315038 1.2851170067 0.9165613573
O 0.0682304285 0.2495312410 0.1592509812
H -0.0524440043 0.8571037067 -0.5945567636
H -0.1763967720 0.7672699822 0.9459763097
O -0.9859274574 1.5328181411 2.4233773054
H -0.6544916616 2.3520035843 2.7982022313
H -0.8538342259 0.8302781772 3.0830378716
O -1.4022816242 -1.3407634540 -1.9961054212
H -2.0495417471 -0.6211967427 -2.0956003077
H -0.7060282595 -1.1461585145 -2.6406441449
O 0.9052402215 -0.2485562879 -3.3845652591
H 1.1911457540 -0.3392495714 -4.2967658732
H 1.6772709046 -0.4437418144 -2.8240750957
O -0.4950780606 -0.9717399451 3.5163140684
H 0.4330330987 -1.0631776597 3.1798434818
H -0.5105930433 -1.3110451171 4.4143445791
O -1.8741257067 -1.8930835619 1.3201580235
H -2.3882800664 -2.6962690027 1.4307618112
H -1.4755986582 -1.6826673258 2.1914715966
O -0.2331145489 1.9713505381 -2.0095380957
H 0.1535246973 1.3978843997 -2.6896245095
H -1.1993110334 1.8805604414 -2.0924718719
O -3.2401555316 0.7270216784 0.7590847600
H -2.6673154025 1.2315005595 1.3536990208
H -3.0331598063 -0.1951087448 0.9578344141
O 2.8367258017 -0.8794004177 -1.4080064245
H 3.7264657694 -1.1563133477 -1.6426069020
H 2.9385061041 -0.1933242521 -0.7086756223
O 1.0080531508 -2.5745231153 -0.2093301025
H 1.0840654380 -3.5059557708 -0.4285943998
H 1.7065872203 -2.1015865507 -0.7056888148
O 1.4279977527 3.0739374157 -0.0421958520
H 0.8495490944 2.8898443356 -0.8025180244
H 1.7347640115 3.9773559391 -0.1446244320
O -2.8815146784 1.0733656466 -1.8893235963
H -3.0922063920 1.0318459571 -0.9266611014
H -3.6836687040 1.3485439246 -2.3391287773
43

Li -0.0140859931 1.0699020933 1.6199401050
O 2.9271006573 1.7952611660 -1.1671953256
H 3.4173032476 2.4759371266 -1.6350231407
H 2.6489935930 1.1323149828 -1.8319214984
O -1.8417430378 -2.9023413098 0.9013515635
H -1.0990088659 -3.4694275979 0.6085200428
H -2.2305462783 -3.3259253041 1.6697358715
O -1.8430706492 2.5691742591 -1.4537250464
H -2.1812775297 3.3005865753 -1.9752087925
H -2.5875764777 2.2282909154 -0.9199730472
O -0.2675806487 -0.6324965653 0.6414072232
H -0.8802293562 -1.3369528968 0.9227341388
H 0.5837759873 -1.0772744189 0.4516851878
O 3.7484766220 0.2934342970 1.0293586407
H 3.6327669476 0.9172848339 0.2869427717
H 4.6828691119 0.2927613164 1.2509993557
O -3.2364678480 -1.2201310399 -0.9545300169
H -2.5815190640 -1.0953532432 -1.6529408442
H -2.8876954392 -1.9299843873 -0.3920498460
O 2.1276803931 -1.7327038731 -0.1929079704
H 2.1700072610 -1.3839862950 -1.1001949917
H 2.8308246670 -1.2776184653 0.2964264304
O -0.7330300674 0.0151658537 -2.0503543684
H -0.6329104101 -0.1416789896 -1.0902635748
H -1.0936262063 0.9146280637 -2.1117948892
O 1.8754382090 -0.2869686149 -2.6296384001
H 0.8956030160 -0.1703021691 -2.5795318408
H 2.0822319287 -0.6004134942 -3.5131956689
O 0.4517561693 2.3435562027 0.2289771574
H -0.2533973760 2.6113479351 -0.3802003766
H 1.2777211949 2.3223478197 -0.2747968437
O -3.6100129840 1.1650228535 0.1702622985
H -3.5258673206 0.2519163689 -0.2115636625
H -4.5512054047 1.3355965273 0.2569310340
O 0.4810952433 -4.0331703816 0.0438221106
H 0.7874919950 -4.9031617146 -0.2169093677
H 1.2331206776 -3.4262232512 -0.0289606201
O 1.5679269815 0.8331848767 2.7288114032
H 2.4296701700 0.6806709933 2.3060193696
H 1.7099297712 0.8421506057 3.6760687041
O -1.7992210197 1.4471190242 2.2763553842
H -2.0621273239 2.1149665381 2.9117972007
H -2.5293381104 1.3639462190 1.6344785455
43

Li -1.1989486001 -1.7644945136 -0.4505381592
O 2.2454881308 -0.8590286817 1.2590859735
H 2.7292289820 -0.0193316182 1.1753134280
H 2.6316588098 -1.4656296812 0.6062951903
O 3.1643570366 1.7119921184 0.4984339233
H 3.9957279090 2.1477500619 0.7013389215
H 2.4600720811 2.3800067388 0.6095897024
O -0.1045525466 -0.2011578247 0.0007073553
H -0.0102964999 0.4947993849 -0.6882510471
H 0.7940408590 -0.4233602461 0.3165031686
O -0.7376306935 1.5928897025 2.0377196054
H -0.5520669365 1.2158532195 2.9037719285
H -0.5511635014 0.8674074059 1.4077141282
O -2.3569918206 -1.2858281667 -1.9093791580
H -2.5988287768 -0.3537804562 -2.0707513822
H -2.5063331557 -1.7636338575 -2.7266766405
O 2.6435842011 -2.1673760651 -1.2079316418
H 3.3608851850 -2.6446222707 -1.6317149318
H 2.6006336065 -1.2775144465 -1.6317237407
O 0.0531011962 -1.2195424241 2.9989779248
H 0.9009399769 -1.2112695329 2.5194293314
H 0.2236241695 -1.6462970442 3.8420849252
O -2.1035896543 -1.8330326533 1.3337487280
H -2.6722689624 -2.5315993498 1.6656885368
H -1.4028972028 -1.6934787503 2.0037180136
O -0.0225401710 1.8783566894 -1.7287711628
H 0.1800180165 2.6051342581 -1.1205329612
H -0.9703785237 1.9354034491 -1.9378289732
O -3.2622823415 0.9245584846 0.7636594475
H -3.1020510113 -0.0113621443 0.9454512694
H -2.6611352079 1.3887945602 1.3622840098
O 2.5241273232 0.3984722519 -2.0068652600
H 1.7331157297 0.8597946928 -2.3131970290
H 2.8723634254 0.9439769208 -1.2854188855
O 0.0900538810 -3.1571791403 -0.8053788782
H 1.0107642118 -2.9141145326 -1.0250862139
H 0.0145682690 -4.1064181474 -0.9101116191
O 0.8771772249 3.3061188753 0.6312357421
H 0.8550949979 4.2458376863 0.8279912580
H 0.2876693710 2.8627887168 1.2759666361
O -2.8163801043 1.4335168842 -1.8379182821
H -3.0599479723 1.3532696991 -0.8842844581
H -3.5329143071 1.9017592791 -2.2731048965
43

Li -1.1483801023 -2.0028509091 -0.4270921513
O 2.2468291586 -0.8299018219 1.2701317980
H 2.7030954744 0.0245412008 1.1755759288
H 2.6505938746 -1.4389474976 0.6299341406
O 3.0842947916 1.7702109577 0.5817740319
H 2.3178701208 2.3631734821 0.7023784935
H 3.8656917506 2.2631979863 0.8430405880
O -0.1052964795 -0.3819029503 -0.0808246884
H -0.0011472603 0.3116392906 -0.7688782170
H 0.7786367039 -0.5280754164 0.3141332153
O -1.0194690486 1.2514739755 1.9276975256
H -0.8199718753 0.7929397248 2.7531299643
H -0.8066334285 0.5851544378 1.2394499892
O -2.5614893183 -1.4141188731 -1.6177693268
H -2.7332227996 -0.4683297026 -1.7801550896
H -2.9179901022 -1.8932616616 -2.3673095460
O 2.7414271911 -2.1185225634 -1.1985230493
H 3.4965753218 -2.5693611414 -1.5837213738
H 2.7104463666 -1.2196573656 -1.6040570353
O 0.2056171790 -1.1662846873 3.1623471902
H 1.0361146474 -1.1336706790 2.6533837137
H 0.4379643382 -1.4846718901 4.0379235303
O -1.6241870698 -2.4222559036 1.4250228276
H -2.2561276394 -3.0253513335 1.8184897428
H -1.0473700862 -2.0986522216 2.1393945613
O -0.0043636832 1.7514587560 -1.7575102677
H 0.1295953798 2.4484145559 -1.0971939799
H -0.9437390396 1.7810649330 -2.0056633128
O -3.2483735165 2.2947251081 0.6025066284
H -2.6257847499 1.9271492836 1.2524784150
H -4.0980537575 2.3781945775 1.0394412125
O 2.6193374196 0.4544898951 -1.9747936203
H 1.8114651322 0.8737519580 -2.2972634608
H 2.9157780158 1.0081068902 -1.2377254775
O 0.1666952121 -3.2049100947 -1.2077184119
H 1.0936626621 -2.9096214268 -1.2823251397
H 0.1628511452 -4.1532666480 -1.3426624841
O 0.6418377108 3.1096669371 0.7258271193
H 0.4979976783 4.0342269312 0.9420324277
H 0.0482999574 2.5851270516 1.3013363100
O -2.8106215856 1.3665055149 -1.9025378179
H -3.0712954684 1.7218302703 -1.0226030774
H -3.3976901823 1.7734345083 -2.5447347912
43

Li 0.5985862261 0.6997942876 2.0459080893
O 2.2865518350 1.5624863702 -1.2996703087
H 3.1090094946 1.8442677165 -1.7090902740
H 1.5640500382 1.8625201694 -1.8876574408
O -3.0772773798 -1.1820573877 -0.4083045185
H -3.9831073872 -1.4521177196 -0.5781021853
H -3.1302558237 -0.4063467735 0.1840781584
O -0.6953116293 -2.8464744585 0.0207829079
H -1.6339763749 -2.6113120761 0.0461079477
H -0.4591351139 -2.9158728067 -0.9217191073
O -0.9990705206 1.1689457154 3.0299265467
H -1.8229408603 1.1263332529 2.5114846273
H -1.2370697420 1.3413144306 3.9413571965
O 2.4775564684 -1.4088644941 -1.2647366866
H 2.4298342095 -1.7905934443 -0.3770461753
H 2.3829600378 -0.4512939979 -1.1565204650
O 0.3616022852 -2.4321834893 -2.5397640250
H 0.5535052338 -2.9890103018 -3.2973017484
H 1.2219807356 -2.0991245558 -2.1833040539
O -3.0110583248 1.2054566670 1.0845837516
H -2.4218307476 1.8215538688 0.5845166063
H -3.8302800477 1.6841934540 1.2358086735
O -1.2148028945 2.8446293466 -0.0500024361
H -0.4037610620 2.8611795099 0.4768286064
H -0.9223566871 2.8498277363 -0.9736605549
O -0.0513443849 2.2820375515 -2.6156154918
H -0.5398820950 1.4336037487 -2.6774893594
H -0.1647301197 2.7451740085 -3.4487931852
O 0.0008811005 -0.1699159062 0.4459964414
H -0.3143716036 0.1647470149 -0.4056443081
H -0.1844340534 -1.1245586864 0.3941756638
O -1.1491080321 -0.1297431316 -2.2226587685
H -1.9750206539 -0.4399985081 -1.8169393426
H -0.6789261864 -0.9316419435 -2.5177682893
O 1.8070191300 -2.8660734985 1.2448221943
H 0.8962417101 -3.0903348021 0.9854000276
H 2.2553236544 -3.6948840819 1.4305988302
O 1.8012009622 -0.5861118078 2.8443960202
H 1.8754516954 -1.4475772101 2.3944026954
H 2.0719365789 -0.7203417865 3.7536474432
O 1.4040905837 2.3218036722 1.2044971865
H 1.9258722741 2.9978489422 1.6422759043
H 1.8577678397 2.1038063098 0.3642310020
43

Li 0.8872619092 1.8914979741 0.7755600511
O -2.8517399915 2.4330321590 0.1822240010
H -3.0332387542 1.5842619963 0.6273506691
H -3.6858977544 2.9048727816 0.1196535185
O -2.9502649615 -2.1626810842 -0.3701106851
H -3.7310481210 -2.4740554849 -0.8340851571
H -2.3413113347 -1.7802157449 -1.0442138206
O -1.0857608647 -0.8536277233 -1.8286236472
H -0.3650821089 -1.4016217510 -2.1888296794
H -0.6813065045 -0.4184349202 -1.0562067194
O -0.4668456337 3.1087484597 1.4439478232
H -1.3616059616 3.0730973476 1.0623007026
H -0.4609562018 3.8058504949 2.1010930332
O 1.2528619192 2.2832242935 -1.1403036774
H 1.6797077491 3.0883390261 -1.4421432569
H 0.3772353934 2.2345456300 -1.6042133232
O -1.2065220642 -3.4794151463 1.4620246935
H -1.3786905016 -4.3800605319 1.7444254149
H -1.8950173679 -3.2477095297 0.8188120788
O 3.4298314348 -0.9467016681 1.2475482619
H 4.2067107678 -1.4026325085 1.5788200705
H 2.7014379347 -1.5960839037 1.2167747620
O 2.8106566282 -0.1210003763 -1.5041301376
H 2.3579306970 0.7348127798 -1.4480682242
H 3.2283842432 -0.2706515124 -0.6451757696
O -0.0657062323 0.1676102659 0.6424199735
H 0.3950574747 -0.6941802008 0.7467727150
H -0.9086801068 0.0940401777 1.1209873915
O -1.1838808266 2.0291144620 -2.1878792427
H -1.3156905083 1.1067629933 -2.4466661884
H -1.8481914017 2.2054531381 -1.5053399063
O 1.3220370953 -2.2382565725 -2.1575059949
H 1.6861414417 -2.8246516271 -2.8241430675
H 1.9410533811 -1.4751538511 -2.0622652239
O 2.5156403946 1.6052436462 1.7629933634
H 2.9301474715 0.7225730001 1.7348660485
H 3.1113705636 2.1845581926 2.2397433519
O 1.1210842015 -2.3000106020 0.6429532381
H 0.4042544540 -2.8608037403 1.0012230953
H 1.1959746245 -2.5133624066 -0.3049102039
O -2.7969369435 -0.0652433183 1.4074895668
H -3.0900150295 -0.2698907893 2.2989845744
H -3.0136847989 -0.8417550514 0.8514034982
43

Li -1.1835524914 -1.8886715820 -0.3152050271
O 2.3427759881 -0.8661175978 1.3152239942
H 2.8214766785 -0.0288511998 1.1879826964
H 2.6908555923 -1.4924201050 0.6592237288
O 3.1562666797 1.7277677546 0.5764522667
H 2.3870345926 2.3151647711 0.7008900314
H 3.9361188230 2.2312028926 0.8224434859
O -0.0221785771 -0.3230287107 0.0254458010
H 0.0811979589 0.3319531889 -0.7002565480
H 0.8674762433 -0.5022455205 0.3918928451
O -1.1005164006 1.3576064812 1.8570780842
H -0.9496014224 0.9885070564 2.7349088742
H -0.7487802522 0.6667033950 1.2492559372
O -2.7836928523 -1.0983945359 -1.0751878698
H -2.7477771172 -0.5955051544 -1.8965843065
H -3.2006329995 -0.4869603025 -0.4492864725
O 2.6452794409 -2.1805235313 -1.1834592221
H 3.3673306931 -2.6847792633 -1.5663339465
H 2.6830880691 -1.2793048877 -1.5846437389
O 0.2717764963 -1.0277138685 3.2048597108
H 1.1070660125 -1.0425517853 2.7036782389
H 0.4880831983 -1.3049572592 4.0984118398
O -1.5558615993 -2.3435552586 1.5459774206
H -1.9497052684 -3.1422822503 1.9006013520
H -0.9617336793 -1.9854931607 2.2309058752
O 0.1021335229 1.7182342431 -1.7655162645
H 0.2422128865 2.4441466608 -1.1397379507
H -0.8115455188 1.8067724493 -2.0926675050
O -3.5009980323 1.2849852410 0.4053533291
H -2.7947676341 1.4018940220 1.0680977185
H -4.3286362451 1.5072067014 0.8381833126
O 2.6880038981 0.3950337489 -1.9646972106
H 1.8817584146 0.8239681451 -2.2808010103
H 2.9916238405 0.9463941734 -1.2284730280
O -0.0268262606 -3.0007641539 -1.3867769487
H 0.9318268660 -2.8200402036 -1.3905158846
H -0.1682300786 -3.8099253354 -1.8798482181
O 0.7172012839 3.1249227784 0.7048681368
H 0.6465946159 4.0585880423 0.9188825266
H 0.0621986795 2.6567216904 1.2608197527
O -2.6449798570 1.6363910366 -2.2701159585
H -3.0646006335 1.7543732756 -1.4012996988
H -3.1568281439 2.1442149298 -2.9039207304
43

Li 0.2072219622 1.1227964514 1.8435631761
O 3.5593370712 0.2589818196 0.0363382267
H 4.5033593059 0.3863751370 -0.0869264144
H 3.1252719800 0.5884373955 -0.7769338326
O -2.7032427480 1.2486258195 -2.2097546498
H -3.4561057477 1.5430068288 -2.7269283919
H -2.9984712868 1.1622182300 -1.2735062659
O 1.2125373360 -1.7537657545 -2.5535442773
H 0.2464908265 -1.6172138202 -2.4363115146
H 1.3260905610 -2.3140395901 -3.3252863870
O 0.2765816578 0.0027163268 0.2790337042
H -0.3534151225 -0.1744384791 -0.4384236515
H 0.8903054583 -0.7501865293 0.2646961767
O 2.0928919155 0.9031581179 -2.2571436936
H 2.4787089021 1.3099403076 -3.0378359016
H 1.8284245111 -0.0000524827 -2.5179712599
O -1.2899704537 -1.0740125531 -1.8395048710
H -1.8294039928 -1.5639036859 -1.1958752263
H -1.8537224083 -0.3651925799 -2.2020466429
O 2.0022008352 -2.1898449945 0.1643773362
H 2.7793501580 -1.6154749078 0.2410189363
H 1.8596600281 -2.3049121178 -0.7902562809
O -0.2894165318 2.6000875214 -1.4514266303
H -1.0631133657 2.2428240883 -1.9157672284
H 0.4601188569 2.0331174816 -1.6826386666
O -3.0785100535 0.8086922599 0.4232555907
H -2.8903664353 -0.1007091036 0.6934503308
H -2.4636276217 1.3757286425 0.9094740034
O -0.8650204374 2.5911117248 1.1483300088
H -1.0007190574 3.4787753783 1.4850387873
H -0.6341461963 2.6750107092 0.1853721869
O -2.4289712621 -2.0926073804 0.5166527782
H -1.6809267087 -2.3964422412 1.0601112940
H -3.1422408810 -2.7211854549 0.6525780683
O -0.0730233149 -2.6941124554 2.0285421111
H 0.7111398185 -2.6326779675 1.4518720621
H 0.0341718396 -3.4977523884 2.5440418468
O 2.1064866057 1.3470019162 2.1726744406
H 2.7240572832 1.0560678828 1.4779101853
H 2.6244264830 1.7761745137 2.8548503244
O -0.7012285676 -0.0871632156 3.0879642505
H -0.4940816524 -1.0136877030 2.8828820470
H -0.8998012462 -0.0414894054 4.0247105593
43

Li -0.5049839336 1.4286669408 1.0136387212
O 0.2964639254 -0.3810824734 1.0820171811
H 1.0296928081 -0.7107343593 1.6301061619
H 0.4721298762 -0.7135845046 0.1794350858
O -2.0354394334 1.5740923949 2.1915862606
H -2.0928093308 1.7228148989 3.1363937167
H -2.8908327608 1.2085976788 1.9063230625
O -2.1342087630 -1.8831474412 1.0599150260
H -2.8863188288 -1.3262564126 1.3048623144
H -1.3382535050 -1.3765577724 1.2914189746
O 0.9201119989 2.7296816225 1.2156343448
H 0.7836919117 3.6573136372 1.4155256508
H 1.6473816814 2.6832211353 0.5687786200
O 2.9582018331 -2.5013340850 -0.4554286147
H 3.3594894635 -3.2637026433 -0.8781115187
H 2.1487600482 -2.2850089162 -0.9556158487
O -3.5507821728 0.1258355031 -1.6206809981
H -4.0960144471 0.3368047223 -2.3821902394
H -3.1331064958 -0.7429212175 -1.7896854189
O -4.1904622787 0.1672967565 1.1066123828
H -5.1114518344 0.1511234870 1.3764599367
H -4.1757462975 0.2147121736 0.1336551803
O -1.1885661629 1.4974567023 -0.8049218460
H -2.0233330985 1.1541937215 -1.1565847738
H -0.5536229400 1.5128089602 -1.5365553186
O 0.6726099695 -1.3687934500 -1.5083238061
H -0.2215219107 -1.7005118935 -1.7061096744
H 0.8085140485 -0.5664774376 -2.0416938170
O 1.0435686775 1.2183763209 -2.5555896221
H 1.7527849464 1.6409927297 -2.0276802390
H 1.1743766815 1.4832317717 -3.4686380755
O 2.5730032153 -1.5916158766 2.1851959527
H 2.6724628598 -2.0811129661 3.0047523313
H 2.7334384967 -2.2134935887 1.4565201813
O -2.0368925609 -2.1801797511 -1.5737996910
H -2.1008067158 -2.1900358775 -0.5821458779
H -2.2972938768 -3.0522345276 -1.8806667829
O 2.8609686810 2.2229616450 -0.7465929974
H 3.5410278847 2.8630296531 -0.9713275969
H 3.3338823266 1.4301752506 -0.3816798509
O 4.0189964168 0.0695895107 0.2625158617
H 3.8026178266 -0.1118619892 1.1850856955
H 3.8583339993 -0.7772187732 -0.1806133360
43

Li -0.3734332776 1.2078638755 1.1881510220
O 0.0699232881 0.1240988034 2.7362093657
H -0.4769951365 -0.6709755825 2.8434825361
H 0.9826868791 -0.2009726988 2.7516359419
O 1.0191039146 2.4534761903 0.6679986007
H 1.9315641370 2.1427042310 0.7496672756
H 0.9562187480 2.8214356233 -0.2268587448
O -3.2856309786 -0.8502279579 0.9138045002
H -4.2389776076 -0.8879937759 1.0205816111
H -3.0484152994 0.0932793631 0.9105566293
O -0.3106010247 -0.2001742069 -0.2282675645
H -0.0154444566 -1.0680802202 0.1205499712
H -1.0209627559 -0.4024714756 -0.8660912911
O 1.8486720954 0.2855699522 -1.8557080825
H 1.8864384651 -0.5087470161 -2.4015522856
H 1.0647279675 0.1367610723 -1.2812679125
O 0.7790836356 2.8417611738 -2.1802705317
H 1.0825603812 3.5305669487 -2.7767546771
H 1.2882733886 2.0370882479 -2.3800108818
O 0.6651119384 -2.6116762348 0.6031885077
H 1.4305975192 -2.3086462281 1.1218616177
H -0.0347266094 -2.8075805452 1.2491501007
O -2.2243053540 1.7978522051 0.7380311148
H -2.6525390890 2.5711605132 1.1132781239
H -2.1931189712 1.9271898233 -0.2462482628
O -1.7883594588 -0.9650879325 -2.4215915664
H -1.0659639617 -1.5944284816 -2.5932745013
H -2.6003057148 -1.4773883509 -2.3949225324
O 0.6095912515 -2.4919602735 -2.2659375533
H 0.6802768209 -2.7512272713 -1.3312593143
H 0.8498499615 -3.2681517830 -2.7782429854
O 2.5912594109 -1.1356453867 2.0921409550
H 3.2548234252 -1.4721831191 2.6994367705
H 3.0385927876 -0.4825152580 1.5195669825
O 3.4391288422 0.8441002506 0.3316806100
H 3.0908433279 0.6046924874 -0.5502598036
H 4.3433920551 1.1436816662 0.2098859777
O -1.9319308549 1.9659042002 -1.9035212922
H -1.0666795988 2.3419456261 -2.1329042628
H -1.9838647166 1.1176138410 -2.3623625457
O -1.4738009204 -2.2666978141 2.4190757523
H -2.2154298814 -1.8559988590 1.9267195273
H -1.8631625118 -2.8124501207 3.1063758751
