43

Mg 0.3785649111 0.2406762053 0.5090097277
O -0.8309180043 -0.3540251953 -3.3290298043
H -1.5634507882 0.2480305750 -3.1047545445
H -0.7351235535 -0.3260588285 -4.2859917744
O -0.0153124290 -0.0890952699 2.5315219560
H 0.6836595606 0.0931516698 3.1800065801
H -0.3971190088 -0.9595981599 2.7447111842
O 2.4102688409 0.6450798483 3.8706806873
H 2.9376385990 0.0081420361 4.3637321927
H 2.4540944115 1.4606948222 4.3803780666
O -0.7689313802 -2.7742840388 2.4284403928
H -1.5265218825 -2.9497774761 1.8460868488
H -0.7698802123 -3.4551112123 3.1071511693
O 0.9423596271 0.6711745512 -1.4456978762
H 1.8891437343 0.7072271834 -1.6567581844
H 0.4620076907 0.3061831960 -2.2116987022
O -2.5322112636 -2.7480077700 0.2007735145
H -3.4339719855 -3.0810623396 0.1706360181
H -2.0792714902 -3.0620800061 -0.6005720586
O -2.6351069173 1.4611886975 -2.1186353422
H -3.5589114476 1.5705794844 -2.3638265684
H -2.2762198067 2.3543912569 -1.9809314691
O -1.5861292988 -0.1604674652 -0.0757454532
H -2.0572363832 -1.0044401986 0.0516079922
H -2.1221748656 0.4087826814 -0.6515957190
O -1.2766687359 3.8694548381 -1.3376423488
H -1.8104530006 4.6257787658 -1.0696618847
H -0.6271997439 4.2260977893 -1.9529281686
O 2.3328294245 0.6877787017 1.0433920937
H 3.0751590448 0.7389572910 0.4246183792
H 2.6508632536 0.7414480653 1.9565626532
O 0.7656494983 -1.8054143549 0.2632574646
H 0.4056130400 -2.2503707502 -0.5248107739
H 0.5289557800 -2.3624327581 1.0217583079
O -0.2488207528 2.2310059598 0.8106754144
H -0.5141006908 2.8534965058 0.1143946348
H -0.8122912892 2.3938346038 1.5721882472
O -0.6838518336 -2.8477120918 -1.9206947900
H -0.8185698679 -2.0903173065 -2.5173201341
H -0.4289583221 -3.5942380523 -2.4711720083
O 3.7943638689 0.7707516778 -1.3765069894
H 4.3353513021 0.0154256360 -1.6286206136
H 4.2925772065 1.5471772215 -1.6515001109
43

Mg -0.0209606706 0.8279573633 0.1242430830
O -2.7981334523 -1.3029110531 -1.8689727443
H -3.2590430042 -1.5046295455 -2.6891835575
H -2.1441079341 -2.0112958762 -1.7332916672
O 1.4866077856 0.6962162004 1.5776501672
H 1.2685893614 1.0521337583 2.4443073512
H 1.9581341891 -0.1495007064 1.7173541871
O 3.6731260803 -0.7536933519 -0.9547186938
H 3.9689815477 0.1721227837 -0.9224622999
H 4.2597699804 -1.2077187187 -1.5677353631
O -3.8904571324 -0.5771055275 0.6268635523
H -3.8174231501 -0.9517476712 -0.2681181753
H -4.6020662609 -1.0421383056 1.0771890891
O -1.5261328341 1.1314147867 -1.2746499089
H -1.9290784783 0.3412523787 -1.6800608209
H -2.2681248065 1.6756212215 -0.9609042649
O -0.5748130243 -3.0076906914 -1.3119378098
H -0.3905470816 -3.7578106676 -1.8856725502
H -0.3988707813 -3.2986994102 -0.3995312821
O 4.0137950839 2.0997017458 -0.7594141849
H 4.5071246539 2.5494756856 -1.4548060406
H 4.3903654213 2.4255523125 0.0653704733
O 0.8764549282 -0.6732629329 -0.9802045909
H 1.8268107983 -0.7382237123 -1.1746400544
H 0.4452488216 -1.5088140088 -1.2380580794
O -3.4799569151 2.2026200618 0.4493565231
H -3.8977261745 1.3418862889 0.6229214767
H -4.1767479443 2.8654475287 0.4498874960
O -0.8597396191 2.3741993499 1.2782270678
H -1.8327825352 2.4472030221 1.2315787712
H -0.5100552668 3.2689746376 1.2410996227
O 1.1555831589 2.2674457522 -0.8575253793
H 2.1274757793 2.2991491304 -0.8354710523
H 0.8724734508 2.5692721484 -1.7254840921
O -1.1626817157 -0.5873168146 1.1176743064
H -0.8025781005 -1.4551922857 1.3692731995
H -2.1359448542 -0.6428692510 1.1107866528
O 0.1981232407 -3.0269549026 1.3904945179
H 0.0554311430 -3.7046582416 2.0584236125
H 1.1307714569 -2.7574244944 1.4600183887
O 2.7746678755 -1.7477156812 1.5382262485
H 3.4215662423 -2.0421464703 2.1874408931
H 3.2629787479 -1.5833320293 0.7118233780
43

Mg -0.0348083057 0.8649266614 -0.0363788537
O -2.9539263917 -1.4698910368 -1.6232320041
H -3.5339459436 -1.7039307989 -2.3544781650
H -2.2313497880 -2.1234361118 -1.6167644013
O 1.6356477844 0.9136943830 1.1960551755
H 1.9187977681 0.0750833369 1.5998284863
H 2.4496915410 1.3637194307 0.9139821121
O 3.6440066002 -0.8105643516 -0.8545162165
H 4.0050419647 0.0748654954 -0.6761003062
H 4.2513406526 -1.2398264626 -1.4653574993
O -3.7083865642 -0.5439054229 0.9528533497
H -3.7304676905 -1.0028200733 0.0950983538
H -4.3415943436 -0.9880318667 1.5255022417
O -1.7057633313 0.9914201357 -1.2708494180
H -2.1385741575 0.1687030304 -1.5700749415
H -2.4251758318 1.5710236440 -0.9682020616
O -0.5144495959 -2.9157208684 -1.4744942286
H -0.3335675643 -3.6347100866 -2.0881404590
H -0.2695576745 -3.2330247194 -0.5857663321
O 4.0895715060 1.8550698509 0.0468803668
H 4.0003343185 2.5653437653 -0.5972226082
H 4.8563400726 2.0906224947 0.5808885125
O 0.8626977747 -0.5015285123 -1.3092752538
H 1.8248256955 -0.6492985056 -1.2784909911
H 0.4377634884 -1.3516285911 -1.5299667809
O -3.5145066718 2.2438648254 0.4515464529
H -3.8792802904 1.3959385118 0.7555818762
H -4.2301619718 2.8862502442 0.4425644281
O -0.8709010324 2.4176428733 1.0901973739
H -1.8414946295 2.5352273201 1.0666728539
H -0.5709515891 2.5921097013 1.9866366514
O 0.8977850300 2.3978071420 -1.2170444540
H 0.6020498089 3.2960785820 -1.0321772342
H 0.7958568213 2.2728094528 -2.1671316798
O -0.9213083633 -0.6019532329 1.1224251518
H -0.5902043070 -1.5065278975 1.2714414515
H -1.8887493146 -0.6119161326 1.2436954663
O 0.2664807073 -3.1107419549 1.2123869286
H 0.0628633416 -3.8280817042 1.8202996503
H 1.1752578436 -2.8175689877 1.4130914472
O 2.6596661553 -1.7075983652 1.6345169525
H 3.2619893083 -1.9707176264 2.3378148592
H 3.1927640023 -1.6180957578 0.8247372805
43

Mg 0.0011354332 -0.0001620636 0.0022150130
O -1.8280678503 3.7037064860 0.3875028584
H -2.4600933484 4.3515635886 0.0608339269
H -0.9424228869 4.0786407321 0.2415967229
O 0.1819616700 0.9474101764 1.8675445941
H -0.5627497340 1.3601436254 2.3465056024
H 0.7814416415 0.5667895238 2.5152688026
O 1.8237571202 -3.7040408504 -0.3873971696
H 0.9359529763 -4.0760265015 -0.2471520373
H 2.4515576733 -4.3548687825 -0.0584798448
O 2.1104541214 -2.2006382769 -2.7749932426
H 2.2502622359 -2.6072231568 -3.6356324557
H 2.1440120649 -2.9126768326 -2.1122082476
O -0.1809483302 -0.9492774298 -1.8631350197
H -0.7787236724 -0.5656410486 -2.5106900064
H 0.5654305482 -1.3587759059 -2.3422780526
O -0.9367105513 -4.2995706888 0.0542343974
H -1.4392107960 -4.5930118859 -0.7132244442
H -1.1475891591 -4.9294065631 0.7523236407
O 0.9254329710 4.3070701816 -0.0825221923
H 1.4354255066 4.6140423965 0.6746548528
H 1.1243804009 4.9282055125 -0.7918256579
O 1.7791339201 -0.9979638502 0.3693563232
H 2.5487324577 -0.6435140893 -0.1097463618
H 1.8414784151 -1.9676679669 0.3067861038
O -2.1064262481 2.2032856067 2.7789137384
H -2.1409244853 2.9149508085 2.1158242230
H -2.2446907770 2.6105365208 3.6394978008
O -1.7774843085 0.9968974072 -0.3649583482
H -2.5459159368 0.6412011364 0.1151688847
H -1.8416605363 1.9664950620 -0.3023651136
O 1.0993578047 1.5387865817 -0.8939544720
H 1.9420822174 1.2967479803 -1.3125593219
H 1.1583098888 2.4589517045 -0.5933776374
O -1.0965248979 -1.5404714323 0.8962924547
H -1.1619780433 -2.4566424918 0.5849189264
H -1.9373817045 -1.2981560738 1.3184421027
O -3.3754084684 -0.0740898927 1.6451625790
H -4.2967324359 -0.3189912523 1.7694364507
H -3.1838384550 0.6502973865 2.2629870836
O 3.3801947999 0.0741098326 -1.6379060637
H 3.1890409872 -0.6496522872 -2.2565981826
H 4.3019150880 0.3184586552 -1.7602705678
43

Mg 0.3892726458 -0.4638721325 -0.4043986409
O 2.8703005671 0.2195996350 3.1925771946
H 2.8316120117 0.2532408253 4.1544238284
H 3.6574931498 -0.2972755611 2.9900978683
O -1.6830258823 1.1219361386 2.7576437096
H -1.9054455956 1.2431900299 3.6858373494
H -1.3883968150 1.9879469800 2.4220126378
O 2.6700388885 -2.5680293649 -2.7802148444
H 3.5270229737 -2.2321127190 -3.0631383692
H 2.5907563164 -3.4344030495 -3.1933951138
O 2.0223655051 0.8217867242 -0.6708961809
H 2.0712447095 1.2704401653 -1.5200791628
H 2.2763223533 1.4664696244 0.0165818002
O -1.2603783964 -1.7327219099 -0.2910138343
H -1.6588471487 -1.9392027602 -1.1534156447
H -2.0008898280 -1.4820333839 0.2915167678
O -3.4681038598 0.6736267359 -1.4326868315
H -3.7635393376 0.3073706087 -0.5810985167
H -4.1482258736 1.2843776710 -1.7325227657
O -2.2131841748 -1.3873599310 -2.9133873455
H -2.6443460811 -1.8873096129 -3.6124764976
H -2.8217913710 -0.6751039376 -2.6532432503
O -0.8849147640 1.1678108510 -0.5662600250
H -1.7862799330 1.1591868042 -0.9374176629
H -0.7594615735 1.9852281809 -0.0554898400
O -0.3339490022 3.1455519064 1.3491997812
H 0.6241398454 3.0602723943 1.5017141787
H -0.5260046018 4.0872609392 1.3077373091
O 1.7030466029 -2.0932344957 -0.1591707546
H 1.3578769220 -2.8768256728 0.2791119943
H 2.1908294885 -2.3980452447 -0.9438358604
O 0.4587953529 -0.7479358231 -2.4751004478
H -0.3953649872 -0.9155826719 -2.9124718970
H 1.1177713596 -1.3494817026 -2.8540719025
O 0.4697668037 -0.2356841042 1.6538964711
H -0.2583736927 0.1537301992 2.1731922706
H 1.2591354156 -0.2674823714 2.2155303937
O 2.4536400538 2.4958977397 1.5264699575
H 3.1165149925 3.1939904622 1.5395702903
H 2.7064052841 1.8619058721 2.2202251659
O -3.3650101822 -0.5186669444 1.1206531822
H -4.0580239810 -0.9801174309 1.6028915624
H -2.9433751175 0.0923744597 1.7502933761
43

Mg -0.4826480896 -0.2078194549 -0.3277956512
O 3.5480002156 -0.6923065168 0.8192843872
H 4.3877007533 -0.3349964521 1.1238381334
H 3.6627168053 -0.9119006725 -0.1213184867
O 1.8470713022 -2.3834940788 2.3250961099
H 2.2009883478 -3.1945252741 2.7031675571
H 2.6027944764 -1.8896351297 1.9597740455
O 3.3780958097 -1.1798445040 -2.0055676701
H 3.9970796936 -0.6842774523 -2.5534249191
H 3.4810682768 -2.0985026344 -2.2767456912
O 1.0412505509 0.5480430985 0.8455631334
H 1.9789160877 0.2925674930 0.8488094583
H 0.8792254581 1.1350704154 1.6059377979
O -1.9399318802 -1.1836928876 -1.4984899793
H -2.8365618457 -1.2906503596 -1.1688591281
H -1.9927824084 -0.9101627379 -2.4316768139
O -1.7175323604 2.7397781618 -3.3533488011
H -2.5739082968 3.1537790064 -3.5060815371
H -1.0700802422 3.3563815142 -3.7116548448
O -1.3510935462 -0.0190103357 -3.9568023465
H -1.4845976432 -0.3663311027 -4.8435359472
H -1.5681493953 0.9281454145 -3.9829221188
O -1.7592030393 -0.3035999097 1.3197741704
H -2.2138145321 0.5209664738 1.5630485098
H -1.3852212671 -0.6585501748 2.1460755463
O -2.2293008617 2.4060795996 1.7987799838
H -1.4802573606 2.4817304258 2.4135980167
H -2.9350673179 2.9687719045 2.1291986449
O 0.6747421262 -0.1058313681 -2.0540519055
H 1.5602834731 -0.4935509030 -2.1297534790
H 0.2336297183 -0.1538025473 -2.9183857910
O -1.3139286567 1.6635059380 -0.7004724964
H -1.4005447183 2.1519458699 -1.5327086573
H -1.6875311443 2.1912932599 0.0261899889
O 0.2429567675 -2.1341485934 0.0971953151
H -0.2268761604 -2.9056143890 -0.2299540547
H 0.7510031884 -2.3901905950 0.8907838674
O 0.1764087868 1.8265838783 3.1680764029
H 0.0569159567 0.9744703297 3.6236836225
H 0.6631459392 2.4032077693 3.7646194174
O -0.2490897977 -0.9215226427 3.6323045607
H 0.5229671226 -1.4371743065 3.3398562755
H -0.5797270941 -1.3481774292 4.4287759703
43

Mg 0.4642172111 -0.5113877535 -0.5217406993
O 0.1340316530 -1.3661523015 3.4224696789
H -0.4034586398 -2.1460828083 3.1983519033
H 0.5085944199 -1.5375216571 4.2925639058
O 2.1988719949 0.1449169592 -1.4598662613
H 3.0272545362 0.2682039489 -0.9724659526
H 2.1319600732 0.8184818553 -2.1596173580
O -1.2428125349 -1.2277904566 0.4128264152
H -1.3610715908 -2.0940692000 0.8302160249
H -2.0272158570 -0.6836246830 0.6102325833
O 1.1595834877 1.8835273497 -3.3374895091
H 1.4418468012 2.1710918294 -4.2105707817
H 0.7380114442 2.6422958448 -2.9006155130
O 4.2286291319 -0.0393786862 0.5257686582
H 4.5900725254 0.7293851078 0.9786120137
H 4.9817153794 -0.6188096762 0.3689629452
O -1.3519251169 -3.4864434681 2.2015872530
H -2.1975131220 -3.7981616852 2.5416901850
H -0.8566733335 -4.2853245594 1.9913526633
O 0.1098417181 1.3452660186 0.3437514398
H -0.2228256364 1.4718808575 1.2482998293
H 0.0130564371 2.1730837009 -0.1599614317
O 0.6329782146 -2.4424349873 -1.3932660323
H 0.1242768278 -2.5807487697 -2.1991562471
H 1.4753400680 -2.8885539400 -1.5190890796
O -1.0878030053 1.1648636552 2.8670348978
H -0.7289299977 0.3215315491 3.1989156225
H -1.0592140281 1.7878000709 3.5994215578
O -0.4259753783 3.3685235136 -1.4979170361
H -0.4447312377 4.3226727913 -1.3764707445
H -1.3474631730 3.0791511459 -1.6176108654
O -2.7268936684 1.7307613771 -1.5637318908
H -3.5327733254 1.8477856704 -2.0761292904
H -3.0005382015 1.4902431823 -0.6608271773
O -0.5967916855 0.0274641981 -2.2312834429
H -0.0939908998 0.5489141326 -2.8816911201
H -1.4425338845 0.4973025151 -2.1090499573
O -3.1685683672 0.6653995509 1.0532815034
H -4.0721517179 0.5385899352 1.3585530963
H -2.6556732220 0.9912155416 1.8150071013
O 1.6558762634 -1.1386693546 1.0588763374
H 1.2838021620 -1.2167132605 1.9553056671
H 2.5715884024 -0.8242417243 1.1257751606
43

Mg 0.1148637686 0.7846527533 -0.0601119110
O -2.9146085076 -1.3378837604 -1.6710057194
H -3.4601522831 -1.5721685016 -2.4281344166
H -2.2861443408 -2.0696909102 -1.5404999302
O 1.7405536809 0.7434417304 1.2401982569
H 2.2351225112 -0.0792499347 1.4032500048
H 2.3494016817 1.4958487600 1.2767997552
O 3.6192057241 -1.6762843088 -1.4408222298
H 3.7839078035 -2.4738330255 -1.9551730034
H 4.3221590708 -1.0686395540 -1.6933889516
O -3.7143599947 -0.2988336676 0.8301934458
H -3.7359653754 -0.7592188579 -0.0270514142
H -4.4126310313 -0.6784795082 1.3724198518
O -1.4874097532 1.0590354441 -1.3600938826
H -1.9554079244 0.2617688753 -1.6693182670
H -2.1791757277 1.6775589254 -1.0692220794
O -0.7150737577 -3.1067382468 -1.2125675457
H -0.6297478429 -3.8958032619 -1.7563387418
H -0.4624914378 -3.3584249129 -0.3062930553
O 2.8758514250 3.3449400326 0.7155165922
H 3.7949616984 3.5763324047 0.5464737693
H 2.5264384738 4.0668467443 1.2484635523
O 0.8455027376 -0.8069323949 -1.1832457515
H 1.7589048806 -0.9588659730 -1.4642369726
H 0.3459626745 -1.6283731811 -1.3437964940
O -3.2657160024 2.4511310487 0.2761764142
H -3.7152958569 1.6433404206 0.5754343442
H -3.9222238251 3.1513870854 0.2193850425
O -0.6671226452 2.3233132841 1.1603689070
H -1.6005968025 2.5694215027 1.0102582109
H -0.5571594122 2.2082043525 2.1086291591
O 1.2195095340 2.1458589050 -1.1981321408
H 1.7926278866 2.7844396365 -0.7420898721
H 0.8692816405 2.5563883515 -1.9931460248
O -0.9482848898 -0.5928989336 1.0803395480
H -0.6293168416 -1.4698563295 1.3557829329
H -1.9163880504 -0.5576685971 1.1810749673
O 0.2844994790 -3.0633535181 1.4175637039
H 0.1599353405 -3.6937483015 2.1334400751
H 1.2192966896 -2.7895570618 1.4410409743
O 2.8692401624 -1.8351147798 1.3178979098
H 3.5383692989 -2.1088435341 1.9537354995
H 3.2764923318 -1.9087550802 0.4372404545
43

Mg 0.5496768727 -0.6680721401 -0.4951409812
O -2.5491092151 2.7543651953 1.6105079700
H -2.4548461661 1.9417079997 2.1415929576
H -3.2293732817 3.2860477597 2.0356620185
O -3.1523177091 -0.7357203405 -1.3698218940
H -4.0128948961 -1.1176065005 -1.5631551921
H -3.2461950256 0.2329363385 -1.3684952971
O 3.5287294632 -2.5298947436 1.0927684247
H 3.7367869137 -3.1173935421 1.8267796526
H 4.3577558274 -2.4095339618 0.6180983497
O -0.5633676804 -1.0141998494 -2.2082739222
H -1.5333074087 -1.0635371820 -2.2367952921
H -0.1760207189 -1.3203372868 -3.0405838949
O 1.7173980125 -0.3257102600 1.1785096861
H 1.5381508248 0.2187238162 1.9675380417
H 2.4431149351 -0.9384668440 1.3732524697
O -1.7241796220 0.3761013969 2.9063745074
H -2.1991718285 -0.0422321280 3.6313669082
H -0.8490806313 0.6354901292 3.2518966605
O 0.1931857174 3.3156811992 1.4626427616
H 0.5507325782 4.2040693615 1.3710205883
H -0.7736930439 3.3996843509 1.5564533725
O 0.1204798532 1.3685569504 -0.6016985448
H 0.3249622802 2.0495793509 0.0617105925
H -0.7504246850 1.6114880775 -0.9650091683
O 0.8765455679 1.3257733412 3.2424969216
H 1.3477961464 1.4809686835 4.0667328138
H 0.7813806727 2.1879822760 2.7940446862
O 1.1491548890 -2.6941126547 -0.4299170445
H 0.5163803548 -3.3705092758 -0.1730507735
H 1.9852699767 -2.8859946106 0.0277771078
O -1.1907810088 -1.0985457115 0.5669166808
H -2.0182597042 -1.1020592241 0.0531443799
H -1.3912737959 -0.6867351760 1.4267975263
O 2.2509808021 -0.4554090093 -1.7283316893
H 2.1787131844 -0.8504676353 -2.6155596006
H 2.6441059992 0.4149271437 -1.8375191577
O 1.4182161559 -1.6972659101 -4.1303720669
H 1.4967805476 -1.2818042473 -4.9955150255
H 1.6436115497 -2.6228548482 -4.2698851292
O -2.5924079425 1.9967126809 -1.1123738478
H -2.8955336762 2.6619583813 -1.7378355367
H -2.7624685334 2.3502088055 -0.2198870285
43

Mg -0.6416488418 0.6916041976 -0.3381130411
O 2.6184305808 1.9744911274 -1.8684089566
H 3.2845614131 2.6204400678 -2.1195251734
H 2.9130745526 1.0980522106 -2.1745518098
O 1.2126585731 1.2434908335 0.4374942226
H 1.8532939791 1.6388957680 -0.1784769825
H 1.7275743301 0.7182761477 1.0751536749
O 0.9230303371 -3.3117164358 0.2505252191
H 0.6379680778 -4.2142544766 0.0785153518
H 0.7133977845 -3.1148301665 1.1823116560
O -5.0126270677 0.8523911767 -0.1991537330
H -5.6960097248 0.1760877672 -0.2629286363
H -5.4300741737 1.6625679426 -0.5121467360
O -2.4445064421 0.2466180095 -1.3259396628
H -3.3443609631 0.4666690926 -1.0291310993
H -2.4938811675 -0.5790644536 -1.8155560823
O 0.5659775754 -2.0394180661 2.6986453577
H 0.4376194614 -2.4220998114 3.5717532910
H 1.3967602994 -1.5271590435 2.7224626136
O 2.7715390013 -0.5070739789 2.0175571894
H 3.4449050918 -0.1608960554 2.6114562639
H 3.2279841015 -1.0607976704 1.3553663561
O 0.1310696396 -1.0319666584 -1.2257334656
H 0.2450078126 -1.8781961522 -0.7576159415
H 0.9286869081 -0.9310310061 -1.7758652347
O -3.4275264558 1.1439736676 2.1641766231
H -3.7924846745 1.3376044470 3.0325215434
H -4.1757939249 1.0196098030 1.5579068364
O -1.6537586855 2.3473640174 0.4578773747
H -2.2498473622 2.2213952670 1.2173143896
H -1.2782303719 3.2298397642 0.5056090870
O -0.0861173885 1.8343468430 -1.9895170836
H -0.6437379939 2.0594946244 -2.7375319646
H 0.8399630657 2.0642151230 -2.1936114789
O -1.2031404627 -0.3821191989 1.3453422250
H -0.6676335946 -0.9524901129 1.9271386744
H -1.9726602878 -0.0636281836 1.8453850581
O 3.4907752609 -2.2362523239 -0.0812717278
H 4.2764431736 -2.7913438105 -0.0460821092
H 2.7199807305 -2.8294303718 -0.0005269594
O 2.7254214452 -0.7617798787 -2.3658339292
H 2.9806643203 -1.1316236668 -3.2167332969
H 3.1815659138 -1.2877830794 -1.6829154753
