46

Br 1.7438604644 2.2236147867 0.0658684148
O -4.4690635131 1.5316380810 0.1412026746
H -4.6404352645 1.1650920936 -0.7473493474
H -3.5841621860 1.9187156736 0.0832672199
O -1.5899212601 1.7815108472 0.1741890495
H -1.4830874329 1.2271742001 0.9684892686
H -0.7143725364 2.1875275628 0.0552562598
O -1.8758513476 -0.0692426397 -1.9167122929
H -1.8018713664 0.6185449829 -1.2235411617
H -0.9555884162 -0.2289301231 -2.1774666617
O 0.9201686370 -0.4143490740 -1.6822387714
H 1.1776629290 0.4367280789 -1.2696314024
H 1.7543560718 -0.8056316188 -1.9944382414
O 1.6915797567 -0.1022328691 2.4609893280
H 1.3555649471 -0.8147906365 1.9010210379
H 1.7585181264 0.6571521552 1.8495716590
O 3.4773980503 -1.5228730818 -2.0209956699
H 3.9291705340 -0.8273523557 -1.4668443799
H 4.0198336250 -1.6541989103 -2.7991673094
O -5.3764602993 -2.3111987565 -0.8067348189
H -5.4990832759 -1.9451373895 0.0755366067
H -4.4540204327 -2.6097509646 -0.7874674349
O 0.1487227045 -1.9021281840 0.5225072998
H -0.7151455592 -2.2928558202 0.2909977024
H 0.3914737953 -1.3663133809 -0.2650931801
O 4.5257016429 0.2868477677 -0.4004964252
H 4.5537332292 -0.1872003554 0.4561856505
H 3.8564059269 0.9804804243 -0.2804997816
O 2.8154915492 -3.1474890494 0.3078964771
H 3.0380267975 -2.7716694571 -0.5567917210
H 1.8769277773 -2.9428522071 0.4295150711
O 4.3023332456 -1.2751313483 1.9083593163
H 3.5616966200 -0.8200899919 2.3376754267
H 3.8771961504 -2.0271289310 1.4599437224
O -2.5287577443 -2.2579063969 -0.2718275067
H -2.3330525780 -1.5606489502 -0.9292230978
H -2.9990422090 -1.7715008986 0.4376141486
O -4.7525140247 0.1216009464 -2.2929651464
H -3.8041902854 -0.0006644019 -2.4436447483
H -5.0546845209 -0.7203823245 -1.9146174891
O -1.2321051222 -0.0786190406 2.3061764536
H -0.4715996145 0.2086814086 2.8281394003
H -0.8381597005 -0.7391562275 1.7090217928
O -3.9683408569 -0.7671407026 1.6013385229
H -3.2493714197 -0.5300782969 2.2013875631
H -4.1929660896 0.0708512024 1.1397842713
46

Br 4.0862500240 -1.2342073264 -0.0219793392
O -5.2790898932 -0.3678445092 1.9037579132
H -6.0203139149 -0.2509988458 2.4990255523
H -5.3997599489 0.2853217564 1.1653071261
O -2.4703734764 -0.0102966924 1.9436348862
H -3.3982303275 -0.1316607290 2.1990239664
H -2.2741804132 -0.7457889675 1.3264134838
O -2.6391144405 1.9937761900 -0.0104559088
H -2.5466847950 1.3748090243 0.7409863736
H -1.8042626579 2.4891932292 -0.0346816275
O 0.1102205638 2.4982930598 -0.1535574671
H 0.2342750786 1.8235205899 -0.8487925913
H 1.0004323280 2.9060351632 -0.0665746281
O 0.8359930590 -1.3600648675 0.1828645444
H 1.7951334826 -1.5486638621 0.1365081406
H 0.7409261991 -0.7029031309 0.8991724562
O 2.7735447693 3.1225598198 0.0393152560
H 2.9990950029 2.5597269211 0.8075875589
H 3.0810483379 2.6103657606 -0.7224781792
O 0.3075557975 0.7231202676 2.0014255207
H -0.5808780215 0.5339619655 2.3332069356
H 0.1880971420 1.4087397983 1.3126984305
O -5.0058726580 -0.7282379028 -2.0639536206
H -4.9471655639 -1.4674992880 -1.4308716107
H -4.0904826055 -0.5633165485 -2.3308666585
O 0.5745532932 0.3822925491 -1.9689131370
H 1.4713103767 0.6186011211 -2.2580648814
H 0.7080894259 -0.2973493321 -1.2743296055
O 3.2028429903 1.2728756173 2.1144089117
H 3.5834229939 0.5161453762 1.6356616227
H 2.2999672221 0.9997061110 2.3254423622
O 3.3175343836 1.1270455042 -2.0796502419
H 3.9722068702 1.1204672068 -2.7803529219
H 3.6010231541 0.4094384539 -1.4629253739
O -2.2177054624 0.0547736596 -2.0205082891
H -1.3047804304 0.1754090427 -2.3273881506
H -2.3768565180 0.7990217962 -1.4076621015
O -5.4283117220 1.2819862783 -0.1951501699
H -4.5993387875 1.7819742061 -0.2142722629
H -5.3533573412 0.6429564980 -0.9360477820
O -1.8863501624 -1.8942190952 -0.0191987253
H -0.9257119117 -2.0274709974 0.0567788177
H -1.9924659399 -1.2982575484 -0.7871202271
O -4.6727975175 -2.5866564657 0.0750754774
H -3.7052434622 -2.6153511362 0.1173867418
H -4.9337877374 -1.9895698959 0.7912786680
46

Br -1.6611161096 2.1273908598 0.1794441263
O -4.4809436269 0.5393763814 -0.0431697336
H -3.6545231749 1.0644838290 0.0249887152
H -5.1888773582 1.1862187371 -0.0544619116
O -0.9994580220 -0.2832041157 -2.0424238341
H -1.1839628100 0.4968753774 -1.4862328624
H -0.0663623447 -0.2023815573 -2.2928338635
O 1.8530375380 -0.2117622545 -1.9048969946
H 1.9084986257 -0.9620038278 -1.2753719520
H 2.7622828611 -0.0767778178 -2.2147869800
O 1.7491724818 -0.2380486915 2.0730023207
H 0.8273952798 -0.3775459038 2.3536821257
H 1.7073395843 0.5326730980 1.4734350299
O 4.6641073121 0.1636913533 -2.0024088952
H 4.6629775593 0.8172366387 -1.2529187287
H 5.3196162344 0.4685279973 -2.6308077807
O 1.6700287790 1.7669318565 0.0924361449
H 0.7743365977 2.1376572856 0.1535961731
H 1.6427300410 1.1566556772 -0.6700013958
O -3.3563281951 -3.3788854099 -0.1194841164
H -3.6399863557 -2.8634720540 0.6573562367
H -3.6062380219 -2.8207263220 -0.8765880680
O 1.9283455904 -2.1722172011 0.0601560738
H 1.0233224840 -2.5268651808 -0.0052450365
H 1.8960933510 -1.5677718008 0.8300356221
O 4.5224836385 1.7794932734 0.1179854961
H 4.6350486562 1.1447809621 0.8570781650
H 3.5925508767 2.0496176390 0.1695696230
O 4.7702482900 -2.1358859432 -0.1708937955
H 4.8353122170 -1.4861002920 -0.8858937182
H 3.8389963301 -2.4055724740 -0.1700130112
O 4.6615202593 -0.2744595409 1.9942160364
H 4.7742918474 -0.9993030307 1.3519344559
H 3.7442736807 -0.3501007631 2.2932266397
O -0.8192193906 -2.3386913214 -0.1135312901
H -0.9290087789 -1.6788947465 -0.8249762449
H -1.6511114378 -2.8619658369 -0.1119709083
O -3.7498820543 -1.3550572697 -2.1298568393
H -2.8558788396 -1.0564036523 -2.3471648659
H -4.0903164138 -0.6736045913 -1.5303619351
O -1.0860508232 -0.6187852303 2.1063254819
H -1.2699012361 0.2428462538 1.6918754187
H -0.9846155910 -1.2293048429 1.3474436665
O -3.9076043249 -1.5032193605 1.9781411132
H -3.0144189362 -1.2291021439 2.2390048180
H -4.2157870453 -0.7872138252 1.4032288522
46

Br 4.1237406894 -0.5065101025 -0.0291846763
O -5.2751384669 -0.4464267036 1.8927506579
H -6.0123418549 -0.3192216890 2.4908342325
H -5.3771003275 0.2210574693 1.1640755159
O -2.4744170001 -0.1519173701 1.9403697817
H -3.4078732924 -0.2609281391 2.1817068637
H -2.2677511026 -0.8920023934 1.3327801703
O -2.5468421723 1.8749130114 -0.0000195148
H -2.4842560661 1.2487500403 0.7479967631
H -1.6876345971 2.3248899586 -0.0296504560
O 0.2536300657 2.2552552165 -0.1678275873
H 0.3393793254 1.5942505371 -0.8825849092
H 1.1741085031 2.5556710350 -0.0046209233
O 0.9582937060 -1.5045843468 0.2037204108
H 1.9301543976 -1.5166116948 0.1273906104
H 0.7861848154 -0.8631340261 0.9199560498
O 2.9272091402 2.6478684966 0.3878230405
H 2.9598939521 2.4664358632 1.3429676438
H 3.3145034352 1.8277641543 0.0346479012
O 0.2760026083 0.5300454250 2.0363656181
H -0.6305753085 0.3647393580 2.3314506869
H 0.2050302566 1.1946354382 1.3208034468
O -5.0312827964 -0.7803596862 -2.0563994385
H -4.9776634960 -1.5254059897 -1.4304776759
H -4.1133780137 -0.6335244319 -2.3276256787
O 0.5059368918 0.1537171329 -2.0218344257
H 1.3568130761 0.3114386078 -2.4751322714
H 0.7037358020 -0.4922620290 -1.3138690910
O 2.9874638843 1.1632656774 2.8334677328
H 3.4431573452 0.5410378275 2.2461864902
H 2.0596200070 0.8892982659 2.7885123439
O 3.0885591277 0.6784117868 -2.9332717655
H 3.5047954687 0.2450543205 -2.1606085954
H 3.3052121057 1.6076603643 -2.8268500971
O -2.2393202362 -0.1105872866 -1.9935516489
H -1.3225009216 -0.0189239820 -2.3079288654
H -2.3684107516 0.6473384393 -1.3914257639
O -5.3718242464 1.2340374685 -0.1819771628
H -4.5320527637 1.7145927794 -0.2046152435
H -5.3198929644 0.5960554568 -0.9264836395
O -1.8406457246 -2.0342886889 -0.0064086729
H -0.8854387197 -2.1934413080 0.0467933649
H -1.9595376192 -1.4356032049 -0.7725725622
O -4.6746284643 -2.6624098473 0.0670160077
H -3.7090246073 -2.7170026516 0.1102579011
H -4.9244837371 -2.0638697960 0.7860604746
46

Br 3.6442371232 -0.6569534891 -0.9435203138
O -5.1573104092 0.0499038313 2.0669117316
H -5.8604316913 0.3513527223 2.6432996943
H -5.2596269529 0.5409441315 1.2089901432
O -2.3316551754 0.1345922305 1.9951381174
H -3.2592808027 0.1563045130 2.2785817881
H -2.2145035701 -0.7310811115 1.5540247129
O -2.4213357238 1.6489087195 -0.3704337393
H -2.3523045816 1.2152050091 0.5026616900
H -1.5447390671 2.0426721743 -0.5223747451
O 0.3355983404 1.8825733543 -0.6065338606
H 0.4025220198 1.0704085576 -1.1425581103
H 1.2074872303 2.3258330854 -0.7235643745
O 0.8743377651 -1.8831289127 0.6203407630
H 1.7978506398 -1.9038410314 0.3191103879
H 0.8093250733 -1.0563409928 1.1385402835
O 4.1855449878 3.2216853177 1.5506841893
H 3.9184790211 2.3271482027 1.8600707891
H 5.1355888676 3.1663538163 1.4339460437
O 0.5001211741 0.6082960968 1.8548146334
H -0.3947330472 0.5912614235 2.2209813924
H 0.4395480069 1.1439095521 1.0347791755
O -5.1375590275 -1.1751521946 -1.7310523803
H -5.1021199742 -1.7628115859 -0.9543807314
H -4.2249310157 -1.1511789557 -2.0527417333
O 0.4957091179 -0.6463007775 -1.9163379056
H 1.4479722142 -0.6133528696 -2.1106529891
H 0.4943877552 -1.1360063598 -1.0724320695
O 3.3861104716 0.6735351685 2.1665492792
H 3.5508513547 0.2114612518 1.3247836920
H 2.4225435895 0.6618951537 2.2632153775
O 2.9114014861 2.6926352489 -0.9471934531
H 3.2373590276 1.7827714125 -1.0582791987
H 3.3394551802 2.9993335877 -0.1285552925
O -2.2979649275 -0.7036536397 -1.8943930141
H -1.4096962512 -0.7304311661 -2.2819474909
H -2.3522063655 0.1696377526 -1.4558777240
O -5.2699459648 1.2239778675 -0.3295749932
H -4.3969054507 1.6159505947 -0.4791551525
H -5.2978504070 0.4392784897 -0.9177469981
O -1.9597899788 -2.1772199087 0.4697158179
H -1.0174495391 -2.3939404190 0.5438248582
H -2.0612148547 -1.7566942537 -0.4082363530
O -4.8175465258 -2.5459858188 0.7577871337
H -3.8573825304 -2.6651146827 0.7893656495
H -4.9944407356 -1.7829492668 1.3275734983
46

Br 1.8003913640 2.3137877939 -0.1488588483
O -4.3377213457 1.3433045355 0.5281868713
H -4.5805337660 1.0752964998 -0.3784338385
H -3.4496666781 1.7194923183 0.4425989570
O -1.4665378810 1.5760749972 0.2822620607
H -1.2179287212 0.9362027637 0.9810333840
H -0.6463202427 2.0634983025 0.1004521947
O -1.9304861518 -0.0735310024 -1.9025641962
H -1.7850864605 0.5538661256 -1.1622304464
H -1.0350422652 -0.2604234901 -2.2192884072
O 0.8961978043 -0.5015048956 -1.6986126293
H 1.1412758941 0.3462160066 -1.2783667129
H 1.7419017930 -0.9038254000 -1.9622629976
O 1.7732742369 0.8460465948 2.7630923899
H 1.8030825473 1.3364514179 1.9113801634
H 1.9889908163 1.4942490916 3.4364072680
O 3.4520460687 -1.6696859554 -1.9013485085
H 3.9006377366 -0.9604783406 -1.3635115989
H 4.0168908318 -1.8428999593 -2.6551756521
O -5.4773004956 -2.3439197478 -1.2550919395
H -5.9081688676 -2.2208851998 -0.4057895411
H -4.5426224154 -2.5135583423 -1.0225695623
O -0.0286907685 -2.2324146804 0.2697813801
H -0.9165349344 -2.5361608488 0.0119663718
H 0.2525936512 -1.6178146617 -0.4405007134
O 4.4806167047 0.1987553555 -0.3249427188
H 4.3578172581 -0.2161225427 0.5560439933
H 3.8429827644 0.9312641593 -0.3353694674
O 2.6628481094 -3.1729186172 0.4948076728
H 2.9547222339 -2.8604965753 -0.3739027319
H 1.7005619074 -3.0468692000 0.4873290529
O 3.8438240755 -1.1153379587 2.0371738039
H 3.1303833564 -0.5603643372 2.3838160867
H 3.4057461243 -1.8834401375 1.6233323493
O -2.7916575454 -2.3347813057 -0.4551920991
H -2.5275059656 -1.5804373572 -1.0190581815
H -3.0567856236 -1.9127343448 0.3940685292
O -4.7968331095 0.3406794150 -2.0927241501
H -3.8621267346 0.2338589980 -2.3198992517
H -5.1136914177 -0.5632130077 -1.9274068736
O -0.7467999567 -0.3500649858 2.1842150064
H 0.0501139628 0.0293348271 2.5878025626
H -0.4242493776 -1.0622040865 1.5943979586
O -3.5575740135 -1.0018828784 1.8315503774
H -2.7143732741 -0.7616345504 2.2410404427
H -3.9045875493 -0.1688874917 1.4494067737
46

Br 3.5589421492 -1.1625880662 -0.5076193808
O -5.2353568106 -0.2445330853 1.9064135384
H -6.0254305253 -0.0903300166 2.4253038626
H -5.2896722303 0.3589139656 1.1197590730
O -2.4141505220 0.0356977780 2.1373853559
H -3.3579968434 -0.0508707174 2.3407097896
H -2.2035552418 -0.7315914605 1.5598208774
O -2.4396239303 1.9198100567 0.0751855748
H -2.4109777690 1.3350399070 0.8596550030
H -1.5722024334 2.3548274772 0.0567681387
O 0.3237265904 2.2633315209 0.0346237810
H 0.5449030249 1.5975127599 -0.6509738721
H 1.1188356025 2.8150015315 0.1155229634
O 0.8088183175 -2.0313141175 1.2574925755
H 1.6068749280 -2.0186103509 0.7041741536
H 0.7821437179 -1.1469432621 1.6584003147
O 2.9560114147 3.2007816269 0.3147590453
H 3.1193237376 2.4501380510 0.9447840710
H 3.4124142419 3.9627939852 0.6729498521
O 0.4018603806 0.6388359284 2.3263952232
H -0.5065436887 0.4957065472 2.6261657029
H 0.3204894833 1.2213383517 1.5463544680
O -4.6385587311 -0.8325106411 -2.0163788504
H -4.6477804248 -1.5355775852 -1.3399899920
H -3.7012223083 -0.7018327760 -2.2184124203
O 0.9746514385 0.3948821245 -1.9153089218
H 1.6640564565 0.9526559318 -2.3216516210
H 1.5141417860 -0.2818924353 -1.4627609394
O 3.2527753756 1.0809449154 1.9099227472
H 3.4276299806 0.3579202361 1.2744286301
H 2.4017260473 0.8581003229 2.3120718895
O 3.4003008533 1.7785984369 -2.2365578975
H 3.7330970841 0.9476525436 -1.8580427744
H 3.3483371543 2.3700145149 -1.4716083265
O -1.8240771491 -0.1236035530 -1.8086043469
H -0.9034070547 0.0140677488 -2.0849348367
H -2.0414139659 0.6435350170 -1.2464495078
O -5.2055139504 1.2732016027 -0.3001834428
H -4.3636532547 1.7511801848 -0.2731959330
H -5.0770912949 0.5913715833 -0.9944837829
O -1.7542110179 -1.9485475432 0.3443070475
H -0.8219052615 -2.1357096839 0.5902158427
H -1.7137623403 -1.4134185359 -0.4704757073
O -4.5286201083 -2.5702101891 0.2326169798
H -3.5646301613 -2.5932472143 0.3455154733
H -4.8384143687 -1.9369585903 0.8956361748
46

Br 4.0419880560 -0.1947305791 -0.1875426726
O -5.1634275630 -0.2002945729 1.9288076150
H -5.8760848900 0.0509069222 2.5172488817
H -5.2050061484 0.4120373659 1.1465574917
O -2.3582272160 -0.1853160633 1.9179578401
H -3.2933824651 -0.1771112686 2.1766502799
H -2.2282625672 -0.9998107373 1.3900045147
O -2.2213880501 1.6831398083 -0.1868442574
H -2.2220660842 1.1107440000 0.6041961503
H -1.3650230566 2.1400422211 -0.1785393653
O 0.5636008550 2.3447899405 -0.1346074158
H 0.9437593557 1.9551809108 -0.9408035239
H 1.3471156181 2.7246279023 0.3190385009
O 1.0371535066 -1.8579405511 0.1093647280
H 2.0000504127 -1.7862515161 0.0163068073
H 0.8227862005 -1.1261319917 0.7205801963
O 3.0067679276 2.9030707035 1.0320172732
H 3.4833846320 2.2680954963 0.4748121304
H 2.9727608193 2.4172657592 1.8764498271
O 0.3970937615 0.3020512482 1.7952458880
H -0.5181884767 0.2375805003 2.1049202780
H 0.4115429718 1.0143933307 1.1256346970
O -5.0079302811 -0.8947949856 -1.9584261565
H -5.0334401885 -1.5902517261 -1.2779821856
H -4.0721452926 -0.8512792033 -2.2117961152
O 0.3801720410 -1.1095968738 -2.5709188805
H 0.9465700431 -0.3341092790 -2.7001392666
H 0.6265215045 -1.4265827085 -1.6821955943
O 2.9626438780 0.8179150176 2.9609570800
H 3.4561794185 0.3552765817 2.2665034398
H 2.0432490497 0.5712438671 2.7750625551
O 2.0556072386 1.1796572195 -2.2733350140
H 2.7119977375 0.7402751334 -1.6781672663
H 2.5773346117 1.7189091625 -2.8706872432
O -2.1929583658 -0.5382248639 -1.9553517106
H -1.2965356644 -0.6806177846 -2.3340491441
H -2.1487925313 0.3034499558 -1.4660153594
O -5.1036038412 1.3006684268 -0.2740619060
H -4.2175354225 1.6849462812 -0.3426837103
H -5.1307196867 0.5953061933 -0.9573801854
O -1.8975142763 -2.2852498600 0.1671449251
H -0.9622837799 -2.5297965436 0.1934357686
H -1.9949348703 -1.7313367598 -0.6387348933
O -4.8002536529 -2.6300158601 0.3277337241
H -3.8445540451 -2.7767147447 0.3601888684
H -4.9737901443 -1.9394849481 0.9840888072
46

Br 1.7910609009 2.1884907539 -0.1734456467
O -4.3561773385 1.4581839748 0.5512938569
H -4.6086777344 1.2268341318 -0.3623920247
H -3.4503285769 1.7921591542 0.4789831644
O -1.4786258644 1.5543620772 0.3160649350
H -1.2547961010 0.9044559566 1.0131096794
H -0.6426703875 2.0199219747 0.1468136010
O -2.0143105194 -0.0347349223 -1.8874153621
H -1.8324595738 0.5726052722 -1.1374474512
H -1.1354783468 -0.2496355281 -2.2288300742
O 0.8065611843 -0.5812240242 -1.6874360256
H 1.0323460040 0.2738453651 -1.2667025579
H 1.6693083811 -0.9612764508 -1.9165806524
O 1.9566164607 0.0031959049 2.3155338277
H 2.0746912848 -0.7960420822 1.7713649747
H 1.9230035131 0.7312679573 1.6642465658
O 3.4627218173 -1.6114844173 -1.6422979616
H 3.9561474189 -0.8403026311 -1.2514573558
H 4.0529124194 -2.0293544142 -2.2702233207
O -5.6840967195 -2.1114013719 -1.2716787645
H -6.0987056754 -1.9583124689 -0.4192912875
H -4.7605005182 -2.3407283864 -1.0493338322
O -0.2310239614 -2.3501954400 0.1997606061
H -1.1340900701 -2.6059462502 -0.0554590357
H 0.0737077920 -1.7281654802 -0.4933966998
O 4.6597504701 0.4145192669 -0.4094746550
H 4.7854509390 0.0883319209 0.5003030655
H 3.9557270259 1.0838328821 -0.3473789555
O 2.5187738594 -2.4788669426 0.9129994937
H 2.8318101156 -2.3120886788 0.0083006964
H 1.5967065155 -2.7570580726 0.8054669145
O 4.7216338713 -0.7911160650 2.1923588244
H 3.9540712663 -0.3036704780 2.5314875890
H 4.3310498204 -1.6413990713 1.9570718440
O -2.9967401185 -2.2703550015 -0.4822837307
H -2.6911902636 -1.5197402037 -1.0299999764
H -3.2383261873 -1.8518421690 0.3758201822
O -4.8572207626 0.5400710082 -2.0941487016
H -3.9268923044 0.3873447113 -2.3124591349
H -5.2214179656 -0.3474582932 -1.9397347357
O -0.8561644031 -0.4541843806 2.1775940555
H 0.0161001261 -0.1987976270 2.5223985036
H -0.6471010047 -1.1692499246 1.5445764426
O -3.7064410479 -0.9377928038 1.8180055323
H -2.8645784051 -0.7439145062 2.2526498761
H -4.0057877686 -0.0809794610 1.4473310675
46

Br 1.4918770088 1.7313281535 2.0159012726
O 2.0752969204 -1.4473459144 3.1484770519
H 1.8538151448 -0.5036238112 3.0883315305
H 2.7757505079 -1.5517160857 2.4948513613
O 2.1677979613 2.0183621245 -1.3706017851
H 1.4710715007 2.6024850741 -1.7354301950
H 2.0918910823 2.1376295555 -0.4113350131
O -1.7397653363 1.0171057172 -2.8912903182
H -0.9018810546 0.6050880820 -2.6017682298
H -2.2451043438 1.0601945437 -2.0582730873
O 1.7854895764 -3.1578863260 -0.4081947770
H 2.1749889382 -2.2691131445 -0.3369112000
H 1.2451510130 -3.1599034915 -1.2069350312
O 0.0669853824 -2.9135414156 1.7359694227
H 0.6370143432 -2.5289386126 2.4241961365
H 0.6900162596 -3.1272964791 1.0088687009
O -2.9050956188 0.7538095955 -0.2996260802
H -2.1712163930 0.2829111209 0.1423967625
H -3.5735211269 0.0670306613 -0.4350525485
O -1.2685058118 3.2000925120 0.4248441156
H -0.5814958225 2.8165504416 0.9908018312
H -1.9543293409 2.5250833837 0.3441891332
O -0.4422436174 -2.6700779858 -2.4392621579
H -0.0190035789 -1.7993873481 -2.3319875841
H -1.2351642919 -2.4679488287 -2.9720221796
O -0.1282744285 3.4292128973 -2.1712587471
H -0.6865347584 2.7899724937 -2.6374959204
H -0.5296219843 3.4707753717 -1.2832267237
O 0.5112250615 -0.1700582630 -1.7315620342
H 0.1518841551 -0.2487050040 -0.8251986823
H 1.2024564705 0.5218401386 -1.6685781548
O -0.6525035263 -0.3926354059 0.7989416015
H -0.4820673001 -1.2853407946 1.1622706299
H -0.0908944643 0.2240147944 1.3076315682
O 3.0727557118 -0.6864903950 0.3067625803
H 3.4834925677 -0.2272509271 -0.4315957584
H 2.5712045975 0.0132205868 0.7664460679
O -2.0555744671 -3.3405123311 -0.2202072595
H -1.5601410757 -3.2768293136 0.6070977251
H -1.4102767967 -3.1516247958 -0.9305836261
O -2.8147701943 -1.5870196112 -3.5446312788
H -2.5151358859 -0.6616337642 -3.5042504801
H -3.3932757179 -1.6761125491 -2.7729408448
O -4.1394988679 -1.7837910228 -0.9152079415
H -3.4105626952 -2.3529656800 -0.5668418930
H -4.9533544686 -2.2578830539 -0.7399165534
