46

Li 0.6110406260 1.9215996039 -0.6080414059
O -2.4983516634 -2.4513788586 0.5602771834
H -3.1253943242 -3.1460785304 0.7751179094
H -2.3829809929 -1.9025198665 1.3762232845
O 0.1009007231 -2.6986215701 -0.4206636083
H -0.7974062335 -2.8221084048 -0.0611206802
H 0.7378630158 -2.8921934421 0.2878900426
O 2.0260583935 2.2848194747 2.4891648134
H 2.4817506354 2.1731395550 1.6385530244
H 2.6262169668 2.7514475777 3.0754511389
O 2.9499777726 -0.8176253121 -0.8402809729
H 2.8469833863 -1.4506687788 -0.1116576619
H 2.4527204338 -1.1667958813 -1.5926048648
O 2.1577474289 -2.3962876311 1.4243806151
H 2.6690545925 -2.9720142801 1.9974662696
H 1.7645841275 -1.6940080460 1.9836439592
O -0.0583294301 0.1068940491 -0.2191001823
H -1.0286259689 0.1030716775 -0.3569689655
H 0.2016371877 -0.8111554065 -0.4132830010
O -2.0918595818 -0.7394539027 2.5775763638
H -1.1660592037 -0.6276706432 2.8389605356
H -2.3985124100 0.1443305920 2.3274899519
O 2.5623248472 1.7490483712 -0.2710072956
H 3.2037199699 2.2719080704 -0.7586167610
H 2.7680998723 0.7990859424 -0.4737050465
O 0.9416615737 -1.8819251840 -2.8458285239
H 1.2581835816 -2.4982731636 -3.5115594904
H 0.6070454177 -2.4155933712 -2.0968954239
O -1.1832968800 -0.1210139403 -3.3857430787
H -0.4469769397 -0.7585813290 -3.2887752025
H -1.5156816328 -0.2272438258 -4.2808179999
O -0.0762266917 2.2472274211 -2.3744227398
H -0.4844086661 1.5109605486 -2.8639009049
H -0.3050359717 3.0610961896 -2.8254813226
O -2.8072122009 1.7581370708 1.2023786184
H -2.9967223280 1.2817232325 0.3759187588
H -3.5887406374 2.2781368144 1.4068386169
O 0.7578284183 -0.2596775112 2.4421344856
H 1.2314714578 0.5225547249 2.7662515165
H 0.4444311676 -0.0020469098 1.5547149789
O -0.2152329920 2.9257028666 0.8208575114
H 0.3073515397 2.9497424936 1.6336401065
H -1.1205393478 2.6713122919 1.0615969437
O -2.7103487151 -0.0840680086 -0.9091858899
H -2.4861095079 -0.1460481316 -1.8498761723
H -2.8722223446 -0.9888143519 -0.5865197226
46

Li 0.1836620372 -0.5649485569 -1.1486070532
O -1.0861127229 0.6874621627 -1.8632907206
H -0.8558950462 1.6284267434 -1.9164480292
H -2.0388081104 0.6449544384 -1.6841427973
O 1.9946950290 -0.0537814790 -1.4924335123
H 2.2743994614 0.8763892689 -1.4822496914
H 2.7195464788 -0.5737232241 -1.1126752810
O -0.3341957109 -2.4229608845 -1.6521497099
H -1.2658764708 -2.4707135461 -1.3103935663
H -0.3692493063 -2.6391152038 -2.5873652900
O -0.7799784760 2.1525169530 1.1487000353
H -0.6948117736 2.6646858510 0.3262237080
H -0.4663810193 1.2547998618 0.9287844064
O -3.2751195773 1.2221694550 1.6403371022
H -3.8368762686 1.7495871281 2.2135901300
H -2.4237516880 1.7104771964 1.5390536012
O 2.4722900601 2.6998659007 -1.0676150707
H 2.4750214887 2.6402044406 -0.0789997781
H 3.2393886200 3.2151508867 -1.3277320274
O -3.7622517637 0.3679893706 -0.9888093647
H -4.5710903277 0.6372537861 -1.4305529420
H -3.7842793358 0.7455214311 -0.0901456840
O 0.0245359416 -0.5451675207 0.8518969668
H -0.6835188900 -0.9825735928 1.3563923342
H 0.8501567894 -0.6310481179 1.3653456052
O 1.6635890423 -3.6526339943 -0.0977229742
H 1.6835813254 -4.6107416127 -0.1370975271
H 0.9262633224 -3.3602399518 -0.6620731338
O 3.6406673896 -1.8328386297 -0.0112761702
H 4.5335231059 -2.1291523926 -0.2007216926
H 3.0462483171 -2.6139000977 -0.0787281638
O -2.3435449531 -1.3786960914 2.1039189935
H -2.7842959909 -0.5085196048 2.1275745884
H -2.4930528939 -1.7965129183 2.9551512462
O -0.1800340606 3.3138998138 -1.4019170560
H 0.7974727071 3.2602845097 -1.4083299279
H -0.4205003623 4.1595556071 -1.7868032524
O 2.5238679783 -0.4667686769 2.0829038752
H 2.7475300938 -0.7930350549 2.9578713597
H 3.0827464636 -0.9580336444 1.4468472527
O -2.7664085121 -2.3081929930 -0.5971230998
H -3.2456207683 -1.5084669687 -0.8627841116
H -2.7302808890 -2.2511118317 0.3684825331
O 2.1809701903 2.3585304465 1.5612112835
H 2.3886673535 1.4515224740 1.8342936468
H 1.2400682337 2.4795596617 1.7475403162
46

Li -0.3764292680 -0.0312032827 -0.9933594474
O 0.4296580465 2.4078874177 1.9308017926
H 1.3584865217 2.1223272686 1.7205366878
H 0.4269434715 2.6873537640 2.8492664393
O -2.1161330377 -0.2671239945 -1.9702022060
H -2.6337336373 -1.0170747048 -1.6239185301
H -1.9837470382 -0.4225388551 -2.9091070416
O -3.3601065535 -2.1576429546 -0.3459119996
H -4.1819865696 -2.6156276878 -0.5404621247
H -3.5780117739 -1.4630481522 0.3106647900
O 0.6161277162 -1.6239832109 -1.4075135531
H 0.2653018098 -2.4405171742 -1.0208505503
H 1.5844006637 -1.6778677161 -1.3801729733
O -0.8056129850 0.1251879979 0.9619164702
H -0.4359131331 0.9302930447 1.3771473573
H -1.7409254138 0.0853566961 1.2300304524
O -3.5770864009 0.0733853945 1.2321660704
H -3.5999045714 0.8759398739 0.6489108354
H -4.1451627399 0.2389834783 1.9878123064
O -0.8912236141 -3.5855390335 0.0060789832
H -0.9789132017 -4.5337951604 -0.1152385932
H -1.7900335957 -3.2171431116 -0.0423510488
O -0.8681530609 3.5997429960 -0.1908796582
H -0.8590876462 4.5553907191 -0.2822715199
H -0.4119687608 3.3836161523 0.6452113038
O 0.4528661058 1.5616380880 -1.6282684382
H 1.4163036666 1.6197159008 -1.7266012622
H 0.1308443939 2.4156891083 -1.3013853575
O 2.8226070746 1.4941939816 1.2775378718
H 2.9944409172 0.5631399141 1.4920221716
H 3.0715091615 1.5973269773 0.3469251261
O 3.1925358620 -1.3416560851 1.5925596203
H 3.7798771092 -1.6669324150 2.2786978506
H 2.2896466890 -1.7017074433 1.7860650558
O 3.2675503444 1.3253318946 -1.5615701044
H 3.4577118653 0.3691195664 -1.5704574359
H 3.9407910580 1.7541249935 -2.0947527724
O 3.4334908883 -1.4277755045 -1.1140783425
H 4.0579847553 -2.0533184580 -1.4889690250
H 3.5023463609 -1.4964052395 -0.1372317474
O 0.6675665840 -2.0832644431 1.9902975058
H 0.1455465412 -1.3082524878 1.7218031104
H 0.2592598129 -2.8152239570 1.5095203263
O -3.2681587173 2.0213015923 -0.5396867837
H -2.9747780695 1.4814795864 -1.2854170369
H -2.5522135212 2.6585174976 -0.3860922270
46

Li -1.1277068486 1.0650786265 -1.2440462967
O 1.9467906222 2.4935552826 2.3301129981
H 2.2142233479 1.5570687271 2.3165646702
H 2.5416801527 2.9431150966 2.9350664310
O -0.8901663242 2.9904966366 -0.8095793348
H -1.3664456252 3.7227886308 -1.2075411861
H -1.0011759201 3.0610582491 0.1588489694
O -0.8931290614 2.2723149949 1.8533410687
H -0.5236000630 1.5029411415 1.3742662699
H -0.1381850668 2.6032042020 2.3613249353
O -0.6059429706 0.4226244456 -2.9726679906
H -0.8303794248 0.7403433953 -3.8485926042
H -0.4825240179 -0.5436765236 -3.0404757215
O -2.8742597511 0.3833148423 -0.7112075584
H -3.0120785382 -0.5470248305 -0.9462812933
H -3.1156989067 0.4542665089 0.2250559860
O -2.5916056829 -2.4530179885 -1.0892855522
H -1.8445776214 -2.5279334901 -1.7186954530
H -3.2291776125 -3.1309523827 -1.3252375706
O 1.2641385222 -2.7282559902 1.6833816400
H 0.3011953539 -2.6023154582 1.7544453482
H 1.4808121339 -3.5208562898 2.1802058191
O -0.3446805150 -2.3220335866 -2.6935874869
H -0.1869397828 -2.9258997346 -3.4238663739
H 0.4681476838 -2.3597126405 -2.1195838781
O -0.0675149554 0.2209699547 0.2098272974
H 0.8724952723 0.1646034206 0.4627184263
H -0.4877939329 -0.5873761060 0.5691357239
O -2.9503262689 0.4058926997 2.1870361020
H -3.7048989571 0.5047410171 2.7729324765
H -2.3622637336 1.1635263642 2.3584143607
O 2.0894364382 2.4414634770 -0.5644250108
H 1.2423473923 2.7675181286 -0.8889767654
H 2.1151892234 2.6714983764 0.3773617456
O 3.3688219627 0.0741547162 -1.0326682818
H 2.9438167348 0.9582147466 -1.0383356120
H 4.2095777064 0.1595558806 -1.4875178530
O -1.3895269133 -1.9005714675 1.3754901449
H -1.9900746385 -1.3253913517 1.8756137690
H -1.9032144931 -2.2580536375 0.6282671355
O 1.7961396054 -2.3227436503 -1.1576913498
H 2.3425502322 -1.5204909002 -1.1951509458
H 1.7059279637 -2.5612215770 -0.2233093452
O 2.3897939369 -0.1295288051 1.5423827632
H 2.1995793907 -1.0371767492 1.8274390443
H 3.0326257644 -0.1855264531 0.8153525292
46

Li 0.3566196847 2.1770678498 -0.4321367833
O -2.7345493696 -1.5402113809 1.7857922453
H -3.3202017567 -1.8879967776 2.4632064981
H -2.8314352964 -0.5552787303 1.7926525773
O 1.6137919504 0.7231027428 2.9545474727
H 1.9324823106 0.7656887648 3.8593385129
H 1.0778446504 -0.0885449105 2.8770671691
O 3.3459093486 0.4169549027 0.6525822516
H 2.9868245641 1.0878862098 0.0530304464
H 2.8942660994 0.5377687593 1.5005653059
O 1.1197306141 -3.2068819140 0.1529194345
H 1.9964030565 -2.8564763629 -0.1206879261
H 1.2202103333 -4.1564050411 0.2537427304
O 3.3449597785 -1.8854072491 -0.6813536274
H 3.4182475385 -1.0719943315 -0.1211296081
H 4.2310446509 -2.2425966921 -0.7765316051
O -0.2344288350 0.3762679420 -0.0089055282
H 0.0165284852 -0.1628576339 0.7650071564
H -0.3436596840 -0.2902682188 -0.7196025219
O -3.2321956844 -1.6345748509 -0.9747608501
H -3.9271605720 -2.2375046316 -1.2513987929
H -3.1416785057 -1.7392364834 -0.0061322259
O 2.0149859445 1.9277248965 -1.4489465394
H 1.9806167833 1.0987466437 -1.9951718214
H 2.5157346869 2.5753856440 -1.9491930536
O -2.6474397986 1.1016377176 1.4294445174
H -3.2743599426 1.4002014808 0.7586869498
H -1.8032786869 1.0644374856 0.9517402724
O 1.9334766185 -0.4156413478 -2.7055505006
H 2.4967623729 -1.0148572584 -2.1897574044
H 1.0666858303 -0.8421164381 -2.7275239028
O -1.1895743906 2.7904524038 -1.4370901763
H -2.0000964033 2.2536599439 -1.4977055078
H -1.2705840931 3.4898062981 -2.0875431791
O 0.1087647926 -1.4215757721 2.0833334450
H 0.5000914771 -2.1551738551 1.5754582125
H -0.8429038550 -1.6101055225 2.1515861426
O -3.5132750595 1.1883212723 -1.3515036674
H -3.4561783944 0.2158426277 -1.3462155274
H -4.2968881363 1.4130775630 -1.8587575676
O 0.6682528980 2.8420068012 1.3697133800
H 0.2790619179 3.5977188566 1.8130053446
H 0.9444169604 2.2146409227 2.0607481058
O -0.4795105430 -1.7490146624 -1.7199091864
H -1.4360227803 -1.8987616781 -1.6705150255
H -0.0598762730 -2.4317002894 -1.1697740006
46

Li -0.6105901589 1.0933673255 1.0267270292
O -3.1247494134 -1.9726031950 1.5803170399
H -2.8283416882 -2.3336072084 0.7045061759
H -3.4864815519 -2.7047731971 2.0847171224
O -2.2261831981 2.1029047316 1.4765673156
H -2.3180528760 2.6173771606 2.2807616697
H -3.0659480128 1.6312758419 1.3474992335
O 2.4090882528 -0.7599396570 -2.4480414786
H 1.9798270304 0.0432975332 -2.7727227262
H 3.1442528351 -0.4422795552 -1.9058007554
O -0.7142398114 -0.5578534038 2.0544456475
H -1.5415119420 -1.0654174685 2.0695236651
H 0.0021820860 -1.2073999956 2.1047532973
O 1.2039981742 1.7233267296 1.1984631989
H 1.8706281850 1.1258305860 1.5715614659
H 1.6830794239 2.2668634238 0.5564769455
O -4.3654325709 0.3468194278 0.8524789960
H -4.0704044959 -0.5135557303 1.2216262598
H -5.2872751849 0.4588312294 1.0967792015
O 0.4728736609 -1.8584165505 -0.8566654879
H 0.0307025538 -0.9948050457 -0.7614300819
H 1.1849272136 -1.6667174429 -1.5041085812
O 1.0268008147 1.8391492015 -2.6846589159
H 0.8393532386 2.3413752905 -3.4809115366
H 1.6679583247 2.3564826068 -2.1628086790
O -0.8072112358 0.6790398809 -0.9111269754
H -1.6833041044 0.5334434266 -1.3107919302
H -0.2647561578 1.1546491951 -1.5662388572
O 4.3254619899 0.4961222905 -0.5702663454
H 5.2646881803 0.3301750470 -0.6804271813
H 4.0794271034 0.1784582665 0.3206459876
O 1.4977039153 -2.2993013681 1.5652406600
H 1.6310389114 -3.2239681744 1.7845497858
H 1.1684426402 -2.2574964035 0.6318258955
O 2.8791072300 2.8257378599 -0.8747043295
H 3.5524573049 2.1188556663 -0.8189729020
H 3.3417505465 3.6662252139 -0.8403543534
O -2.3022942406 -2.6516272936 -0.8538519052
H -1.3447972556 -2.6361408748 -1.0056318180
H -2.6685997350 -1.9543421291 -1.4146469272
O 3.2181453667 -0.2166968442 1.8694368715
H 2.7040081549 -1.0520637359 1.8287169381
H 3.6654700150 -0.2055106224 2.7189882762
O -3.3700634782 -0.0634540690 -1.7272124497
H -3.9049273482 0.1557298630 -0.9424042556
H -3.8755261886 0.1997358840 -2.4996050635
46

Li -1.2668418684 0.8615638002 -1.2716133623
O 0.6054854351 2.6906686103 2.0215893242
H 1.1401885645 1.8933605588 2.2106305643
H 0.9784528474 3.4033405935 2.5463956233
O -1.7815187226 2.6520556447 -0.7570265457
H -2.3357664088 3.2853743301 -1.2161776247
H -2.0327822800 2.6751536796 0.1837306338
O -2.1006815337 2.2252187817 1.9773616926
H -1.1351398413 2.3478244596 2.1093889504
H -2.5346696719 2.8031757769 2.6101280904
O 0.0504104873 0.8344681775 -2.7348579649
H -0.0765068585 1.1441888392 -3.6342128078
H 0.4013756518 -0.0802915453 -2.7912463238
O -2.7680562271 -0.3690263979 -1.3272190676
H -2.5523460554 -1.2857764263 -1.5573715248
H -3.1626087593 -0.4085368882 -0.4426587953
O -1.5215935691 -2.9193005343 -1.6145795253
H -0.6807724568 -2.6437131506 -2.0327112951
H -1.7969966442 -3.7332141181 -2.0427486659
O 1.4749566885 -2.4197159273 2.0153261149
H 0.5208283725 -2.5413741113 1.8563916300
H 1.7552881173 -3.1264830896 2.6014414816
O 0.8380382265 -1.8087217790 -2.5987277459
H 1.2780064034 -2.2298729232 -3.3422453252
H 1.4899594599 -1.8447201437 -1.8433437121
O -0.2319313406 0.1336884143 0.1881447502
H 0.6088049695 0.3243669268 0.6320718842
H -0.4992138992 -0.7449703578 0.5115526402
O -3.2005210582 -0.3861365106 1.5340056940
H -4.0262042095 -0.4391448858 2.0214711694
H -2.7938575623 0.4668379390 1.7747995405
O 1.7942336440 2.3705885066 -0.8408728475
H 1.1930617983 2.0083106986 -1.5057347732
H 1.2439814881 2.6902679064 -0.1143141633
O 3.7487877200 0.6431793370 -0.1258745939
H 3.1438455397 1.3385785814 -0.4690489415
H 4.6496111949 0.9429928261 -0.2634031534
O -1.1459920547 -2.3381367969 1.1198104511
H -1.9505873806 -1.9017891765 1.4414226769
H -1.3615350283 -2.7378024746 0.2595949236
O 2.5764619245 -1.8934071399 -0.6296688202
H 3.0863469736 -1.0754817349 -0.5066218673
H 2.2906292935 -2.1766202534 0.2518533229
O 1.9992595123 0.3653464910 1.9887021246
H 1.9017146165 -0.5603638183 2.2627833641
H 2.8100773377 0.4193843327 1.4534610727
46

Li -0.6062416129 1.5168023576 -0.8819511747
O 2.7951031253 1.1131285009 2.3935834293
H 2.6906762373 0.1524805767 2.3531460921
H 2.0060990443 1.4498752260 2.8388438597
O 0.4681450326 3.0850436228 -0.3824704924
H 0.3922197271 3.9257741999 -0.8392293654
H 1.4176130354 2.8582220630 -0.3541779734
O -0.0391117080 1.9931076977 2.5740151882
H 0.0989482476 1.4572750792 1.7680895552
H -0.0366344171 2.9049376514 2.2659136153
O -0.2178355447 0.8339172695 -2.6388896544
H -0.7477658327 0.0973962510 -2.9801351087
H 0.6963063112 0.5100255281 -2.6343851814
O -2.4522589411 1.4073537992 -0.3097380977
H -2.9504044147 0.6636049005 -0.6839440521
H -2.6637267517 1.4031772924 0.6356268150
O -3.3842155094 -1.1663840032 -1.1233053422
H -2.8329658116 -1.4250379484 -1.8915705370
H -4.2782461932 -1.4671281080 -1.3011802258
O 0.2506732216 -3.3065306123 1.1102602476
H -0.5796325936 -2.8284807701 1.2963371652
H 0.1551346634 -4.1946496900 1.4617017620
O -1.5055053832 -1.6906271981 -3.0362487720
H -1.6196787958 -2.1711384744 -3.8593372490
H -0.7333184852 -2.0890068120 -2.5692141728
O 0.2020862714 0.2201391484 0.4488315812
H 1.0451841328 -0.2570245428 0.5263088002
H -0.4943020010 -0.4435685411 0.6376209897
O -2.5717733672 0.8572422737 2.5488936058
H -3.2265625384 1.0392740917 3.2270260431
H -1.7539608504 1.3253472549 2.8065508384
O 2.9999888576 1.9535598432 -0.1312810792
H 3.8138468092 2.4526722535 -0.2401291644
H 2.9742426113 1.6699927574 0.8196537246
O 2.4148628221 -0.1206817829 -1.9753470639
H 2.7113068881 0.5680178029 -1.3505906239
H 3.1245713507 -0.2345289353 -2.6124421490
O -1.8324022001 -1.5116142549 1.1804660544
H -2.1963911773 -0.8906049407 1.8340809021
H -2.4676186620 -1.5308649592 0.4409309463
O 0.6624470974 -2.4780880089 -1.6623070209
H 1.3210690478 -1.7716828621 -1.6017944417
H 0.5842827227 -2.8764407522 -0.7836877416
O 2.3343083864 -1.4760425182 1.2227374353
H 1.7465964823 -2.2426295197 1.3521533684
H 3.1214000804 -1.8055686161 0.7819533626
46

Li 0.2250970436 -0.6264588996 -1.1640557141
O -1.0554998943 0.6890961484 -1.7624055931
H -0.8391248925 1.6337944792 -1.8191141336
H -2.0076837290 0.6294776884 -1.5911100672
O 2.0342454055 -0.1067227749 -1.5453266914
H 2.2807294660 0.8329721072 -1.5335417568
H 2.7679923399 -0.5877285283 -1.1319974186
O -0.5428198195 -2.3628508396 -1.7836144190
H -1.4624771982 -2.4796104109 -1.4773212661
H -0.5611975512 -2.4860791846 -2.7360297134
O -0.7013533386 2.0435798673 1.1674416834
H -0.6227419844 2.5982136147 0.3718023889
H -0.4088200772 1.1606636929 0.8865299180
O -3.2682321179 1.2308450478 1.6283735169
H -3.7984430288 1.7222092975 2.2601714055
H -2.3946686135 1.6766118266 1.5649663272
O 2.4853738243 2.6564945368 -1.0897207222
H 2.5102257224 2.5997140869 -0.1007094153
H 3.2515192067 3.1634637656 -1.3685860677
O -3.7742184978 0.3212903411 -0.9118404257
H -4.5221426205 0.7059815215 -1.3756479361
H -3.7573298275 0.7172072407 -0.0153820612
O 0.1743522402 -0.7801077113 0.8294920681
H -0.6309669939 -1.0479713382 1.3395079674
H 0.9254942390 -0.6695697054 1.4415698932
O 1.5935345055 -3.3510078677 0.1511726899
H 0.9478825224 -2.6830485654 0.4206097684
H 1.2037867840 -3.7475492709 -0.6334372328
O 3.7431888081 -1.7355113173 0.0625856992
H 4.6254178497 -2.0863637964 -0.0781088879
H 3.1107786983 -2.4878683448 0.0336459855
O -2.1580359186 -1.4287765051 1.9190639616
H -2.6777190784 -0.6176406619 2.0217579244
H -2.5986663349 -1.9381113038 1.2242853006
O -0.1558568102 3.3073382395 -1.3354899543
H 0.8213496065 3.2451083640 -1.3730069991
H -0.4018325047 4.1645290200 -1.6900831039
O 2.5961942606 -0.4125136352 2.1790757746
H 2.8203390354 -0.7264813089 3.0586859472
H 3.1829547695 -0.8787906402 1.5501734796
O -3.1124080530 -2.3693278790 -0.6780360043
H -3.5163193344 -1.4986317444 -0.8555339522
H -3.7895624640 -3.0336018842 -0.8292240818
O 2.2447455668 2.3602193956 1.5485930536
H 2.4819721511 1.4732951686 1.8620598952
H 1.3045431458 2.4583434131 1.7494524571
46

Li -0.8502623941 1.3851070910 -0.9562296439
O 2.7635769014 1.6867521714 2.0959150832
H 2.7944966642 0.7198381648 2.1402421871
H 1.9408469256 1.9380104580 2.5369692872
O 0.1334065754 3.0502815701 -0.6870170260
H -0.0220391750 3.9008552040 -1.1019345703
H 1.0988943867 2.8875435894 -0.7064797619
O -0.1674365191 2.1538333226 2.3888592869
H -0.0365536550 1.5750009595 1.6112941451
H -0.2857408612 3.0352773910 2.0211271840
O -0.8717873293 0.7333561473 -2.7713952011
H -1.0599412012 -0.2042066539 -2.9650021445
H -1.0058530710 1.2248008936 -3.5829307666
O -2.6440044673 1.1730414131 -0.2178926584
H -3.0820818481 0.3735228910 -0.5477145607
H -2.8027458378 1.1738322134 0.7381575006
O -3.2932256146 -1.5551677784 -0.8935465089
H -2.7118595499 -1.8025696148 -1.6410275600
H -4.1403014404 -1.9817832903 -1.0428555361
O 0.6482301071 -3.1821746111 1.2380498872
H -0.2170936293 -2.7958898251 1.4655868544
H 0.6789227866 -4.0601411031 1.6250835365
O -1.3543826137 -1.9823391816 -2.8147420868
H -1.4442503660 -2.5494861967 -3.5843583421
H -0.5085913244 -2.2434632291 -2.3628029277
O 0.1059355885 0.2527604353 0.3671387401
H 0.9952085770 -0.1158761198 0.5397495625
H -0.5129257015 -0.4453001985 0.6681857301
O -2.5511874942 0.7491201480 2.6598578981
H -3.1730558606 0.9114379755 3.3730946518
H -1.7727046723 1.3162288063 2.8218287348
O 2.7618551281 2.2081011884 -0.5222683001
H 3.4926137892 2.7936263719 -0.7391190089
H 2.8088240977 2.0644043431 0.4602324857
O 3.0272692064 -0.4898952822 -1.5020435431
H 2.9439775950 0.4647574886 -1.3278885165
H 3.7390441348 -0.5942282978 -2.1378495477
O -1.6581950117 -1.6292466393 1.3833190907
H -2.0481105595 -1.0142994263 2.0272859654
H -2.3268335348 -1.7491036375 0.6845617784
O 0.9124972891 -2.5031549377 -1.5646224366
H 1.5733236901 -1.7940035691 -1.5840042744
H 0.8808250633 -2.8403118128 -0.6563018445
O 2.4475715997 -0.9984272090 1.2082147174
H 2.0508667134 -1.8620325467 1.4050326062
H 2.9773528513 -1.1070001367 0.4055136549
