46

I 3.2958255495 -0.3666683510 -1.8447164107
O -5.3978543245 -1.0182823566 2.2041331749
H -6.1369675907 -1.0124451442 2.8132012829
H -5.6231068584 -0.3832821577 1.4736139905
O -2.6886885938 -0.2497279540 2.3671108156
H -3.5977520327 -0.5532971913 2.5265463806
H -2.2815747748 -0.9265980273 1.7861290876
O -3.2220160776 1.8405308859 0.5607704839
H -3.0051155481 1.1844062163 1.2520881646
H -2.5255516528 2.5112783862 0.6072478794
O -0.6007737944 3.0380617372 0.6822831621
H -0.2469207560 2.3518246984 0.0821090321
H 0.1913406570 3.4390692610 1.0753773801
O 1.1777136965 -0.2523610421 1.9247903769
H 2.0354104197 0.1963886576 1.8516154601
H 0.6013407662 0.3191176086 2.4667687237
O 1.7923440790 3.3411386203 2.2389779016
H 1.3783605421 2.8415278774 2.9502015640
H 2.4245580398 2.7247208477 1.8359698619
O -0.6153328263 1.5179992872 3.1167048851
H -1.3801653447 0.9205389444 3.1425781269
H -0.7503125981 2.0487988404 2.3108836980
O -4.9343680402 -1.1968369115 -1.7565885971
H -4.0381230440 -0.8968709678 -1.9617720456
H -4.8049431483 -1.9450984641 -1.1438233325
O 0.2605869267 0.7659913761 -0.6485666214
H 1.0575887920 0.6226883539 -1.1946128140
H 0.4680664545 0.2842796114 0.1728164774
O 3.4990890765 1.2012505010 1.2344973773
H 3.4753837497 0.8277606431 0.3234458618
H 4.3882417012 1.0223782214 1.5472120603
O 0.9549808408 -2.5377503888 0.3004020358
H 1.1292806044 -1.8846086519 0.9965896929
H 1.5123638264 -2.2417676402 -0.4336902840
O -2.3173023759 0.0323759848 -1.4542349791
H -2.6979191542 0.7091015293 -0.8662944025
H -1.3686117454 0.2502078431 -1.4558233904
O -5.8008376965 0.6287542551 0.1419241422
H -5.0812266236 1.2745098920 0.1902000885
H -5.5696171947 0.0470379409 -0.6145940874
O -1.7851842336 -2.0131879945 0.4188513323
H -0.8532831969 -2.2954102480 0.3136570790
H -1.9553598654 -1.3854843549 -0.3091199523
O -4.4310835359 -3.0687667927 0.3238438572
H -3.4712848450 -2.9380762338 0.3983334774
H -4.8051765963 -2.5561214151 1.0539589119
46

I 3.8460729467 1.0331832851 -0.0306159335
O -5.7225416282 0.8903389198 1.8729966839
H -6.3505294168 1.2753665578 2.4853379462
H -5.5296905315 1.5834660703 1.1874362166
O -3.0497723137 -0.0469662178 1.9519150309
H -3.9455436277 0.2416048674 2.1879580898
H -3.1737956024 -0.7560669741 1.2882964682
O -2.3013654616 1.9403266091 0.1112774247
H -2.4996091736 1.3050309112 0.8273854322
H -1.3314414986 2.0053803665 0.0957649217
O 0.3623233392 1.1688821452 -0.0002336372
H 0.2677448896 0.5341787637 -0.7374774728
H 1.3196185564 1.3553523566 0.0393658548
O -0.6099872084 -2.6577051889 0.1546943450
H 0.2364837948 -3.1522238811 0.1056486817
H -0.4780975656 -2.0252059497 0.8885869726
O -0.2251139507 -0.6188060404 2.0462350664
H -1.1028560242 -0.3950433206 2.3844196289
H -0.0045996026 0.0873034318 1.4037599396
O -5.5262195342 0.7326409201 -2.1211048674
H -4.6253664964 0.4921970252 -2.3794683166
H -5.8148773408 0.0024222210 -1.5431039973
O -0.0483641257 -0.8649624443 -1.9112898888
H 0.8638092987 -1.0623158684 -2.1824230768
H -0.2653249847 -1.5531044352 -1.2478178051
O 2.0031403962 -3.5164951268 0.0549964255
H 2.3332063980 -3.0142593135 -0.7038196329
H 2.2746360523 -2.9775823207 0.8242161038
O 2.7040946218 -1.5238316477 -2.0032585370
H 3.3430268375 -1.5700552305 -2.7175616606
H 3.0484152209 -0.8143914201 -1.4114845557
O 2.5329712055 -1.6823659234 2.1306656604
H 3.0190064186 -0.9559584410 1.7093945270
H 1.6640036759 -1.3100830745 2.3351799924
O -2.6889809812 0.1301717444 -2.0043989399
H -2.5339680397 0.8359044557 -1.3449864255
H -1.8047119759 -0.1364394145 -2.3013187031
O -5.0882497192 2.5867063994 -0.0917388883
H -4.1226445471 2.6630984851 -0.0765587350
H -5.2803266146 2.0387487346 -0.8822218921
O -3.2923465193 -1.8777395969 -0.1452308280
H -2.5029704103 -2.4400592909 -0.0817027534
H -3.0972964129 -1.2477333365 -0.8685173191
O -6.0994504422 -1.2241985424 -0.1233091121
H -5.2504107418 -1.6882886302 -0.0786319966
H -6.0945222604 -0.6231255808 0.6360892997
46

I 1.5887791660 0.6036299403 2.1091631544
O -4.2621398412 2.7198548049 0.4704008625
H -3.3694820963 2.5492706992 0.8060726738
H -4.1248748786 2.9577154528 -0.4642688040
O -1.6519861679 1.5822538714 0.8896779388
H -1.9360444476 0.6481376799 0.8322999331
H -0.8009219336 1.5555150877 1.3550878738
O -1.1171202642 1.9106002167 -1.8183876091
H -1.2738060641 1.8892927995 -0.8513378993
H -0.1620547785 1.7458147263 -1.9034265456
O -0.0280207776 -2.3677189547 0.8082439512
H 0.0716205537 -2.1103307316 -0.1304931152
H 0.4064622133 -1.6512328055 1.3017132154
O 2.2652963679 -3.1767688529 -2.6742637022
H 2.8947063311 -2.4321133198 -2.6655681555
H 2.3620538993 -3.5785460418 -1.7913839885
O 2.4130443462 -3.8862418789 0.0965018898
H 3.0205573303 -3.1770201687 0.3549241949
H 1.5588865203 -3.6007351154 0.4556306883
O -4.9517213722 0.2949192461 -2.5994724527
H -5.1026207479 0.1894140584 -1.6223843541
H -5.7588145521 0.0197663457 -3.0354895834
O 0.2052963105 -1.6620849056 -1.8670659798
H -0.6214792637 -1.5809552522 -2.3623578098
H 0.8337075194 -2.2702799397 -2.3237685823
O 3.9652075269 -1.4666004078 0.5984688021
H 4.6957993222 -1.3766766841 1.2141976783
H 3.2722075042 -0.8756883048 0.9581327182
O 1.4931465572 0.7794601626 -1.5400324551
H 1.6112275109 0.8851403419 -0.5809266258
H 1.0288189313 -0.0776825481 -1.6311376120
O 3.8451121073 -0.8298766977 -2.2395024427
H 4.0706591359 -1.0212803829 -1.3172194272
H 3.1683672493 -0.1387097789 -2.1637155661
O -2.2696472965 -0.5486302365 -2.4129821391
H -1.8825444667 0.3453826017 -2.3042148841
H -3.1884453601 -0.4057305340 -2.6890475803
O -3.7600109822 2.9669914573 -2.3407812070
H -2.8107131668 2.7781809686 -2.3733936590
H -4.1904798087 2.1377428264 -2.5948527448
O -2.5325524840 -1.0362656201 0.3610763921
H -1.8326782813 -1.6284898913 0.6869331176
H -2.4073784742 -0.9931697944 -0.6064558942
O -5.1556005468 0.1252676032 0.0544873255
H -4.4098961349 -0.4134090713 0.3587767297
H -4.9206796046 1.0439096760 0.3079370157
46

I 3.8353684632 -0.9961730882 -0.0558339668
O -6.3446768114 1.5687647250 0.1111952039
H -6.4159646924 1.0386285917 0.9153193770
H -6.2839916871 0.8919677765 -0.5793789646
O -3.5218061875 1.9228198836 0.2160910741
H -4.4933466415 1.9937489626 0.1938586078
H -3.3178091405 1.2505527200 0.8948165213
O -2.8562722891 0.2829162561 -1.9502864357
H -3.0524655673 0.9519432823 -1.2647185434
H -1.9733965708 0.5076197636 -2.2877464525
O -0.1090680466 0.8343561235 -1.9601713961
H 0.0883403669 0.0797208786 -1.3722224709
H 0.7779063653 1.1713212261 -2.2188142360
O -0.0931663339 0.8050664268 1.9911383100
H 0.8226342415 0.9789358453 2.2654926248
H -0.3145123073 1.5280970412 1.3692796167
O 2.4580693795 1.7728216157 -2.1781984987
H 2.4146922659 2.4171433462 -1.4481545724
H 2.9812918306 1.0398369281 -1.8207695233
O -0.7742723550 2.6524688474 0.0209870627
H -1.7367051766 2.7485726754 0.0609620068
H -0.5947076635 2.0668483623 -0.7463220625
O -4.7785015989 -3.2919896527 -0.2613247177
H -5.1035539868 -2.9993876101 0.5980778316
H -3.8371001781 -3.0500308690 -0.2506640983
O 0.3436394515 -1.1564825347 -0.0142151683
H 1.3016559067 -1.3320421907 -0.0771687981
H 0.2497144270 -0.5569729161 0.7501252457
O 2.0176408888 3.4663543010 0.0943004080
H 2.3043663346 2.8843045665 0.8140439227
H 1.0515609330 3.4554097288 0.1391401417
O 2.6596913686 1.3965688984 2.0616420011
H 3.0056147032 0.7034318903 1.4494988161
H 3.3186519375 1.4569743202 2.7562824649
O -2.2970142135 -1.9033822332 -0.2676976401
H -1.3251752628 -1.9585967804 -0.2339088930
H -2.4768124912 -1.2087562632 -0.9319671186
O -5.4544293778 -0.7883005273 -1.4215640541
H -4.6377488718 -0.5145352523 -1.8644666818
H -5.3492797337 -1.7412744448 -1.2510468468
O -2.7338344034 -0.1936297081 1.9106721388
H -1.8706162123 0.0798897943 2.2585726496
H -2.5339798964 -0.8606147323 1.2234000888
O -5.4967705647 -0.8999396160 1.5620786488
H -4.6552697671 -0.6751252800 1.9844763345
H -5.3222622617 -0.7987141630 0.6139131096
46

I 4.0257016122 0.8861646902 -0.1838778385
O -5.6728702207 0.8718503583 -1.6668078395
H -5.4952923714 1.4849044904 -0.9376239192
H -5.9942876092 0.0693737655 -1.2144994345
O -2.9823263740 0.3263670740 -2.1859059843
H -3.9424695726 0.5127172707 -2.2276142577
H -2.6201801326 1.0655108928 -1.6623092840
O -3.3744388072 -1.6254388037 -0.2507764529
H -3.1982386906 -1.0278646201 -1.0084526443
H -2.5927586182 -2.1981255098 -0.1759468306
O -0.7586549625 -2.4293380788 0.1133998906
H -0.6270756109 -1.7248137314 0.7749193577
H 0.0691368087 -2.9592475332 0.1609047285
O 0.5701406296 1.1844169489 -0.3893696615
H 1.5417675419 1.2761189602 -0.3393813115
H 0.3984900537 0.5272765190 -1.0926782721
O 1.7724195898 -3.4308584487 0.2737346234
H 2.1041333351 -3.0119924749 -0.5459674857
H 2.0845624840 -2.8404766418 0.9745492081
O -0.2598255467 -0.8368655053 -2.1300682957
H -1.0989715758 -0.5533381736 -2.5165027045
H -0.4949054714 -1.4635961954 -1.4156786490
O -5.9056808822 0.1857831226 2.4204328717
H -6.0795960721 1.0818385747 2.1145325068
H -4.9394428281 0.1387606113 2.4654708445
O -0.2825948343 -0.2096171156 1.8275653490
H 0.5366241449 -0.5229628858 2.2424755209
H 0.0389310947 0.3537069676 1.0891092755
O 2.5162790857 -1.9203515131 -1.9603160194
H 3.0450239163 -1.1983775186 -1.5819281238
H 1.7076121619 -1.4985138296 -2.2791182877
O 2.3891342628 -1.1835941834 2.1167129208
H 2.8104320803 -0.5972537169 1.4498913418
H 3.0261304818 -1.2133410633 2.8340544299
O -3.0658292848 0.3041096332 1.6743172982
H -2.1826243818 0.1621751641 2.0538003802
H -3.1799353809 -0.4304356087 1.0278892371
O -6.2307453015 -1.3855712302 -0.0328505400
H -5.3267633250 -1.7282691140 -0.0952585978
H -6.2601192420 -0.9538950712 0.8355040215
O -1.9768457559 2.2449435689 -0.3406822609
H -1.0080667065 2.1893348900 -0.4115410185
H -2.1865045050 1.6558066228 0.3980583655
O -4.7676522072 2.4377416367 0.6807346476
H -4.1657203864 3.0782132389 0.2875334127
H -4.1706702854 1.7725124067 1.0581251549
46

I 3.6727777031 -1.1403016221 0.0903456569
O -6.0578759866 0.8195105086 0.2630783045
H -6.9516175962 1.1602624650 0.3207172379
H -5.9669154517 0.4196892774 -0.6406335050
O -3.4694539903 2.0228056587 0.5303607741
H -4.4258212911 1.8644589444 0.5011817409
H -3.1457309525 1.4729146200 1.2776661662
O -2.9003939648 0.3445741873 -1.6234451351
H -3.0381365048 1.0231758977 -0.9315514220
H -2.0085314470 0.5021938544 -1.9773482938
O -0.1568797765 0.7469021957 -1.7950290683
H 0.0047898754 0.0305979107 -1.1498573159
H 0.7358408843 0.9771602978 -2.1381484518
O 0.1954569144 1.1337625686 2.0308762718
H 1.1375238922 1.3083131338 2.1902000686
H -0.0868211357 1.8050050331 1.3780578596
O 2.4447238260 1.4583620633 -2.3030274349
H 2.4589868266 2.2104738202 -1.6836673944
H 2.9422822501 0.7586062597 -1.8521002124
O -0.6960323063 2.7960622195 -0.0259281185
H -1.6516704955 2.8924926711 0.0807880963
H -0.5669567097 2.1163074966 -0.7235514639
O -5.1692459549 -2.9626756720 -1.1315813062
H -5.3862142381 -2.6795604593 -0.2227498698
H -4.2100925576 -3.0440499982 -1.1034863474
O 0.1693578383 -1.1006156152 0.2994078186
H 1.0906002730 -1.3974885862 0.1855097246
H 0.2302730642 -0.3976385216 0.9755586351
O 2.1497375877 3.5108375907 -0.3134773330
H 2.4781491254 3.0188078140 0.4548777511
H 1.1913573085 3.5475649342 -0.1942143595
O 2.9453900587 1.7055258484 1.8036558210
H 3.1807154108 0.8998491100 1.2835805639
H 3.6597575476 1.8057576977 2.4360666920
O -2.5609460904 -1.7315906627 0.2905523111
H -1.5922556879 -1.8216708508 0.3144463285
H -2.7095022191 -1.0749479076 -0.4172364336
O -5.5778540438 -0.3439556600 -2.1085267602
H -4.6505031833 -0.0727276156 -2.2127767031
H -5.5197563106 -1.2973410865 -1.9063060241
O -2.4676810992 0.2836175590 2.4130200728
H -1.5368375803 0.5142377431 2.5581868685
H -2.4453310446 -0.4874010150 1.8237146188
O -5.3310774348 -1.7876178026 1.4144889433
H -5.5912075618 -0.8751791498 1.2164085950
H -4.3651355178 -1.7787148081 1.3977098803
46

I 3.9032940849 0.9577553666 0.0281954814
O -5.3812487763 1.5205377231 2.4985888670
H -5.3754198172 2.2614377830 3.1062119879
H -5.3740308012 1.9193432175 1.5977244688
O -3.0367137668 0.1136031424 2.0193711859
H -3.8663879103 0.5190503241 2.3373310656
H -3.2884990130 -0.5919020763 1.3967063054
O -2.2576569898 2.0275556262 0.1273980403
H -2.4677921869 1.4066552383 0.8540770120
H -1.2879696059 2.0835168920 0.1172699475
O 0.4156144582 1.2142179751 0.0224239307
H 0.2940204671 0.5874669726 -0.7163452729
H 1.3803685298 1.3544292598 0.0696736517
O -0.6944954010 -2.5603137187 0.1960171073
H 0.1365288255 -3.0794713490 0.1378711511
H -0.5371182616 -1.9284022173 0.9269638506
O -0.2610032505 -0.5407988329 2.0745702173
H -1.1478742878 -0.2980941795 2.3795926083
H -0.0074919692 0.1543294853 1.4332456118
O -5.5608286268 0.6213602268 -1.9912748848
H -4.6410198577 0.4691661833 -2.2512355274
H -5.8502367693 -0.2318282348 -1.6279472542
O -0.0901625230 -0.8073636715 -1.8946995790
H 0.8178700222 -1.0232335895 -2.1662663463
H -0.3175299853 -1.4807772028 -1.2202678286
O 2.4456455738 -1.6978250520 2.1564053905
H 2.9506096235 -0.9829081677 1.7376323680
H 1.5882573825 -1.3028145466 2.3674072739
O 2.6415061158 -1.4930346803 -1.9904774391
H 3.0048036466 -0.7973803132 -1.3928129233
H 3.2862881535 -1.5630571264 -2.6973328633
O 1.8898000303 -3.4894732847 0.0617400494
H 2.2343170757 -2.9870841900 -0.6903805351
H 2.1723142524 -2.9654581147 0.8378259612
O -2.7001076877 0.2295333079 -1.9494923810
H -2.5225891936 0.9407041143 -1.2994082829
H -1.8256405631 -0.0544418621 -2.2593996625
O -5.1193512411 2.5656292094 -0.0069058067
H -4.1605628077 2.6617334878 -0.0863669051
H -5.3650382755 1.9213449139 -0.6999251270
O -3.3534492129 -1.7584046894 -0.1029474184
H -2.5571296155 -2.3090085908 -0.0101005382
H -3.1208804971 -1.1006286932 -0.7913403782
O -5.9969964876 -2.0262585464 -0.9180863691
H -5.0986628746 -2.0915677302 -0.5427067050
H -6.0198746601 -2.6768327450 -1.6218750559
46

I 3.8128872004 1.0658803608 -0.5611946098
O -5.9432163380 0.9977439331 1.7697217237
H -6.6145861823 1.4068650585 2.3167455949
H -5.6445862522 1.6867761381 1.1189833240
O -3.3241694535 -0.0222550581 2.0739871909
H -4.2285868856 0.2911705850 2.2296657838
H -3.4031310344 -0.7336595410 1.4064068726
O -2.2699519468 1.9300517098 0.3586790759
H -2.5689138145 1.3009971095 1.0442415872
H -1.2990497462 1.9331162184 0.4179799375
O 0.4002822804 1.0632853904 0.4595565812
H 0.2808845312 0.4369407507 -0.2803263491
H 1.3351906196 1.3182742101 0.3906500768
O -0.7071989099 -2.6881897936 0.5284980373
H 0.1625630705 -3.1303690458 0.4644323377
H -0.6318807563 -2.0804332451 1.2957811660
O -0.5575220083 -0.7333625221 2.4772068700
H -1.4610385919 -0.4197387923 2.6184245797
H -0.1275091710 -0.0481956533 1.9366626903
O -5.4159958509 0.8681902641 -2.1710520759
H -4.5013070866 0.6028085432 -2.3466309961
H -5.7728491110 0.1407418824 -1.6298726943
O -0.1279641634 -0.9017339930 -1.5169326852
H 0.7254671279 -1.1606336862 -1.9014226146
H -0.3411282217 -1.5894650526 -0.8504873062
O 3.4898272322 -1.6452574579 1.7374912361
H 4.4235491477 -1.8645791956 1.7042774513
H 3.4417046226 -0.8014921159 1.2527826826
O 2.5094060901 -1.7292142504 -2.1655966080
H 2.9110948145 -1.7825037348 -3.0348802536
H 2.9588856664 -0.9764213677 -1.7228165480
O 1.9536949426 -3.4508954763 0.1649576182
H 2.1831488086 -3.0793540210 -0.6978205247
H 2.4530569608 -2.8937510385 0.7900139205
O -2.6579847932 0.1769059923 -1.8034568316
H -2.5111668380 0.8662286602 -1.1253650196
H -1.7660229589 -0.1464724102 -2.0166615760
O -5.0259630940 2.6769450695 -0.0935048028
H -4.0626487841 2.7098091033 0.0008074968
H -5.1830043288 2.1462632671 -0.9036271084
O -3.3849931834 -1.8612592850 -0.0238267403
H -2.5994447275 -2.4167944048 0.1043946914
H -3.1367750021 -1.2183716205 -0.7193297255
O -6.1815370074 -1.1112597723 -0.2469604869
H -5.3564034081 -1.6047648048 -0.1333691856
H -6.2214944360 -0.5117451196 0.5127108121
46

I 3.7143743791 1.1121568170 -0.2505994189
O -5.6480335061 0.4999034165 1.6719431092
H -6.4467791082 0.5836486420 2.1945402242
H -5.4577494735 1.3994438379 1.3014383223
O -2.9840125028 -0.3997434890 2.2009114865
H -3.9119101248 -0.1417021803 2.3095448951
H -3.0156112635 -1.2480468281 1.7044894521
O -2.4918705016 1.4327679210 0.1610276078
H -2.5859774659 0.8308603334 0.9285538330
H -1.5345290188 1.5797546868 0.0674560081
O 0.2122383472 0.9850714192 -0.0937434321
H 0.1407639793 0.2352518008 -0.7162496375
H 1.1418866944 1.2726217799 -0.1527681916
O -0.1983711232 -2.8735222279 0.6830385376
H 0.6963936245 -3.2745620697 0.6379048822
H -0.1120028970 -2.1341998615 1.3156225429
O -0.0493718165 -0.5422528767 2.2437452853
H -0.9442913520 -0.3986498517 2.5793279379
H 0.0568910472 0.0840268582 1.5000808761
O -5.9800650678 2.0931231392 -2.0576954686
H -5.3146797594 2.1888521006 -2.7419807997
H -5.9499430331 1.1448883912 -1.8070414912
O -0.1489758046 -1.3542232199 -1.6321909060
H 0.7391571695 -1.4987380810 -1.9959819530
H -0.1907927186 -1.9532773044 -0.8553893863
O 2.8393009481 -1.3530252298 2.2768886065
H 1.9533066902 -1.0335537149 2.4936379214
H 3.2233932348 -0.6545064715 1.7217189482
O 2.6588037998 -1.7521700005 -1.9081096690
H 3.2667022737 -1.8346551902 -2.6457463170
H 2.9629414352 -0.9496596968 -1.4284728253
O 2.4691633094 -3.4939583712 0.4831481696
H 2.6564202182 -3.0590083228 -0.3608029426
H 2.7123844989 -2.8241974242 1.1524695429
O -2.9251568486 -0.7116232642 -1.6234537755
H -2.7681767410 0.0984131604 -1.1002105733
H -2.0466324272 -0.9701590643 -1.9429126092
O -4.9333902459 2.7968773567 0.4779242486
H -4.0008810305 2.5514904551 0.3477015714
H -5.3276142886 2.7179386577 -0.4096004660
O -2.9982128616 -2.6137456631 0.5760185794
H -2.0978892177 -2.9748229848 0.6142163448
H -3.0199677983 -2.1016533006 -0.2489293266
O -5.7555001148 -0.4948965750 -1.1125772419
H -4.8637156569 -0.7823564071 -1.3572334485
H -5.7336818462 -0.3666910763 -0.1522793291
46

I 3.3470638027 -0.6662698196 0.9682325157
O -5.9945159485 0.9720476651 -0.8245895590
H -6.3791652203 0.2782487041 -0.2854073003
H -5.3873973757 1.4554038199 -0.2219461145
O -3.8261410353 -0.0704979421 -2.2650698945
H -4.6770001266 0.2579451424 -1.9200493783
H -3.6613897141 -0.9283914629 -1.8137705148
O -1.7874691164 -0.5180575846 -4.2858428120
H -2.5748563327 -0.2589057610 -3.7834697986
H -1.0790816313 0.0603220417 -3.9733258009
O 0.3452276650 0.7274147562 -2.6579382013
H 0.5191055527 -0.1248445762 -2.2024199734
H 1.1073967582 1.2762830090 -2.4233569257
O -1.3369544263 -0.7147044699 0.6729727286
H -0.7067328139 -0.3476343284 1.3278786264
H -1.5317965448 0.0428916653 0.0823711030
O 2.4523063246 1.9768303378 -1.1357557543
H 3.2254510287 2.5255087026 -1.2818377482
H 2.7734743278 1.2217083280 -0.5955405483
O -1.8450906859 1.3932636222 -1.1028904463
H -2.6085495516 0.9623943888 -1.5524297728
H -1.0887248822 1.2625899856 -1.7116648724
O -3.3957456296 0.2274650083 2.5747840621
H -2.8005877705 0.4371256267 3.3152769069
H -2.8463581050 -0.2948032980 1.9723295730
O 0.6877475388 -1.5825957497 -1.1888863653
H 1.5459356706 -1.5011839676 -0.7348579119
H 0.0293742829 -1.4280838436 -0.4879554435
O 0.2276748963 2.7811619566 0.5397659930
H 0.9772898159 2.6179366018 -0.0555060810
H -0.5612832027 2.5687952097 0.0251805226
O 0.3944756617 0.6768914519 2.3343016651
H 1.2701030290 0.2829790092 2.1662341375
H 0.3766729713 1.4917928637 1.7889076053
O -1.1479388531 -2.9715264966 -2.9584433857
H -0.3481346008 -2.7201958978 -2.4752682293
H -1.3351744399 -2.2058528043 -3.5313224348
O -4.1099431824 2.2083916305 0.7623988584
H -3.3127116335 2.2780972835 0.2252519885
H -3.8699060752 1.5899353699 1.4825968815
O -3.0731531277 -2.4028635269 -1.0223011653
H -2.5337264303 -2.1020732460 -0.2801466739
H -2.4290045935 -2.7351351484 -1.6816443891
O -1.3337436131 0.7013030293 4.4956155300
H -1.1339057339 -0.0495198489 5.0569009641
H -0.6140397032 0.7276233347 3.8353548015
