46

Ca -0.1518349174 -0.5094925849 -0.1280609311
O -2.3467244502 2.5715568341 1.4515375347
H -2.7749347974 3.2121968973 2.0258443219
H -2.7329111316 2.6676820126 0.5653640437
O -0.6311228759 3.0757359520 -2.8545695745
H -0.2394924343 3.9181474474 -2.6012278760
H -0.7482315938 3.1294356249 -3.8092860315
O 2.9874790841 1.8027942696 0.4255725770
H 3.3778215343 1.4524443411 -0.3954786830
H 3.6528526914 2.3622560054 0.8364454867
O 0.8058164862 0.5871258650 -2.1012237094
H 0.4877574600 1.4677034332 -2.3472215514
H 1.7687858811 0.5655638175 -2.2365056312
O -2.2363019974 -0.3675722310 -1.3101509531
H -2.6490383762 0.5148042215 -1.3807207908
H -2.5108469916 -0.8730109942 -2.0794072872
O 1.9236237982 -0.6130254395 1.1759549319
H 2.4116704881 0.2331318580 1.1566245017
H 1.6877655672 -0.8008983469 2.1027133895
O 0.1006248299 1.8637834215 0.3822918626
H -0.4815450163 2.3810256517 0.9579521679
H 1.0089744885 2.1907230921 0.4557552394
O 3.3073739111 -2.2812825656 -0.6898806711
H 3.0611584055 -1.9740849500 0.1956058689
H 3.9816594492 -2.9581854712 -0.5776641416
O 0.5811052073 -2.2316332563 -1.6664857116
H 0.7109587258 -1.9857495386 -2.5869905406
H 1.3943628439 -2.6844302385 -1.3986354146
O -1.6265418250 -0.0983079352 1.8255306909
H -2.3286135682 -0.7697294415 1.9205575578
H -2.0447492622 0.7803713765 1.8593533905
O -0.3044143425 -2.6284282574 1.0921312134
H -0.0727756935 -2.5387380111 2.0291474010
H -1.0900013901 -3.1839626433 1.0644117961
O -2.9411489907 2.3227840272 -1.3423693131
H -2.2182733626 2.6957452520 -1.8792900484
H -3.7617037185 2.6570151393 -1.7180552565
O 3.5838091335 0.2620135306 -1.8633817379
H 4.2765504786 0.4113437843 -2.5135127339
H 3.6712222099 -0.6635919052 -1.5649971073
O -3.3169659852 -2.3311056113 1.9485290103
H -4.0667296285 -2.4281705699 1.3537326236
H -3.6180949515 -2.6945139238 2.7872797503
O 0.4714276659 -1.2743202822 3.4368593984
H -0.2840293057 -0.6757317081 3.3469081836
H 0.6432978355 -1.3921138188 4.3754176666
46

Ca -0.2647921785 -0.1017638286 0.3625171386
O -2.6098093763 2.6859941932 1.5991343136
H -3.1861151834 3.3808041905 1.9309440295
H -3.1306751502 2.1355793268 0.9986775337
O -0.3273421852 2.3140006309 -2.6943974670
H -0.3624279097 2.7062170488 -1.8075213712
H -0.1663213796 3.0266468633 -3.3200035564
O 2.4602453054 2.4937735798 1.1038188337
H 3.1153455750 2.1428445455 0.4759905328
H 2.8908665099 3.2073800189 1.5840936103
O 1.2893053475 0.3527998367 -1.4264703412
H 0.9676669775 0.9509355947 -2.1183755162
H 2.2416995348 0.5318685219 -1.3206159972
O -2.6689756384 0.3517411163 -0.0869109991
H -2.7920536761 0.4164403761 -1.0540218353
H -3.1341948699 -0.4548129469 0.1857137472
O 1.6961336771 -0.1572202599 1.7138867755
H 2.0618353838 0.7343784011 1.8363375362
H 2.4515094746 -0.7331131904 1.4942280511
O -0.2164355633 2.3717891296 0.1635867473
H -0.9015897653 2.7939409708 0.7099453650
H 0.6566513774 2.6648845278 0.4849760756
O 1.4642626963 -3.1822448372 -0.6365015149
H 0.8553579622 -3.3302686790 0.1014092565
H 1.6416949304 -4.0469466686 -1.0206325412
O -0.9302433599 -1.6440437339 -1.4447456824
H -1.2992494837 -1.1697931910 -2.2082836442
H -0.1458191704 -2.1241432048 -1.7425247078
O -1.1597617716 0.5211509988 2.5272764555
H -0.7323522338 0.4571034500 3.3849760835
H -1.7351768566 1.3050438895 2.5446598385
O -0.5038877932 -2.3691693363 1.3495370041
H -0.3458842584 -2.5032100146 2.2892069257
H -1.4387741159 -2.6028555160 1.1875173563
O -2.3144660857 0.3670253187 -2.8437047642
H -1.7159856365 1.1183940407 -3.0112243973
H -2.9498898666 0.3405279336 -3.5649223270
O 3.9255530565 0.8140975623 -0.6801081251
H 4.6706815654 1.0376757745 -1.2457169923
H 4.1006039805 -0.0721215687 -0.3172577602
O -3.1666260068 -2.4917305130 0.4971977117
H -3.1031931757 -2.8820524074 -0.3816076956
H -3.9156643660 -2.9191568004 0.9263612917
O 3.6382856440 -1.7309348926 0.5012247683
H 4.3252613135 -2.2799689841 0.8908101037
H 3.0445454084 -2.3256338213 0.0074318481
46

Ca -0.4864006060 0.1051743172 0.8217233806
O -3.3353456479 1.5620625529 2.2902780460
H -3.8270650394 0.7401759529 2.1788724582
H -3.9446473363 2.1923604443 2.6878547077
O -1.1187551581 1.3474239634 -3.0683170363
H -1.6736946904 1.7183388116 -2.3659951568
H -1.1808029555 1.9392848775 -3.8237591207
O 3.0630298859 1.8608396082 1.2971864688
H 3.4706268841 1.6815106556 0.4335589966
H 3.7136328643 2.3381896219 1.8198831347
O 0.8197113122 0.8393770110 -1.0955411975
H 0.3892989484 1.1354437628 -1.9116235763
H 1.7773577341 0.8362765257 -1.2502023355
O -2.2912889778 1.2522520472 -0.4831974195
H -2.7019638462 1.8393236512 0.1672713240
H -2.9933225114 0.6325443012 -0.7635874437
O 1.6350694849 -0.5374485209 1.6648145463
H 2.0982917648 -1.3052987477 1.2911803850
H 2.2796381621 0.1848828008 1.7499090799
O 0.2193760756 2.3524375177 1.3920246383
H 0.0818024423 2.6839456087 2.2836689336
H 1.1649994126 2.4746954251 1.2092816594
O 2.5243118118 -2.7091568872 0.1117072562
H 2.6593633416 -3.5939582201 0.4638074954
H 3.3016262636 -2.5105886312 -0.4350605995
O -0.2220373368 -1.9713184717 -0.4035504539
H -0.5572108182 -1.9555549820 -1.3142707605
H 0.6809169696 -2.3244343664 -0.4350625893
O -0.9828051431 0.3310034358 3.2033654697
H -0.6220319383 0.0182768098 4.0358076511
H -1.8380542106 0.7516450557 3.3714365372
O -2.6608114413 -1.1283154740 1.2550859545
H -3.1479924622 -1.3438328637 0.4397816769
H -2.6254569282 -1.9379747493 1.7729823456
O -1.6016084241 -1.4323316611 -2.8816367435
H -1.4060107789 -0.5222335209 -3.1703521435
H -1.5844298270 -1.9866534450 -3.6674331955
O 3.6753750882 0.9128381255 -1.3021291008
H 4.0708767525 1.4993086558 -1.9538658577
H 4.1324610138 0.0592735003 -1.3888918090
O -3.7867625174 -0.9443131268 -1.2655534965
H -3.1977835802 -1.2829535650 -1.9662048983
H -4.6936367642 -1.0800660063 -1.5539725970
O 4.7973601942 -1.7397417229 -1.4050376698
H 5.6432431724 -1.8440203395 -0.9557541105
H 4.9306244054 -2.1135390609 -2.2827087826
46

Ca -0.1098498001 -0.2112047867 0.7424226001
O -2.0982494873 3.0334570567 -0.7191105440
H -2.7834129886 3.7069837207 -0.6792367290
H -2.5142773624 2.1842961370 -0.4969687910
O -0.7514247500 2.1574470673 -2.9799077451
H -1.2722667294 2.6822503236 -2.3424589227
H -0.5600629491 2.7246726510 -3.7318793357
O 0.1052352008 2.3984321956 4.2683178245
H 0.9469539330 2.7856591305 4.5282156657
H -0.5282498173 2.6913237300 4.9308596299
O 0.9267333724 1.0232736823 -1.0476383254
H 0.5338103269 1.5057588613 -1.7932095718
H 1.8841074708 0.9627468197 -1.1931722222
O -2.3668210416 0.2372924013 -0.2744785903
H -2.3911296703 -0.0920923695 -1.1950585266
H -3.0780064466 -0.2108410561 0.2146082755
O 2.1547632846 -1.0068010800 0.8866690302
H 2.8355292440 -0.4139338275 0.5305005286
H 2.3312536647 -1.8556214500 0.4497600826
O -0.5114001031 2.0411723759 1.4883241161
H -0.8293511661 2.7291142925 0.8886075988
H -0.3798761390 2.4255359799 2.3665678263
O 2.5006308027 -3.0483778734 -1.0788837058
H 2.5847781299 -4.0031888838 -1.0030746275
H 3.2629827990 -2.7467562910 -1.5996277680
O -0.1173741813 -1.9307186886 -1.0683529413
H -0.5364442326 -1.6097117480 -1.8817009283
H 0.7340289866 -2.3290971240 -1.3120163118
O -0.0703740088 -0.2201582552 3.1633401935
H 0.1033296702 -1.0078017673 3.6846436353
H 0.0610411964 0.5509572999 3.7364537136
O -1.3358976345 -2.2025851457 1.4663603374
H -1.2877875923 -2.8368021785 0.7426193780
H -2.2697950333 -2.1400924201 1.7103727876
O -1.7729676971 -0.4407860385 -2.8750658993
H -1.4348216730 0.4330690438 -3.1475331610
H -2.3182821951 -0.7691209543 -3.5953649396
O 3.7269028113 0.5377540310 -0.9289556283
H 4.3605134780 1.2495808498 -0.8023108953
H 4.1617180657 -0.1217845857 -1.4939773530
O -4.1171884240 -1.2794186497 1.4499893565
H -4.8083533406 -1.8534272601 1.1037340748
H -4.5083092705 -0.8523739295 2.2188757413
O 4.7189832640 -1.7448708129 -2.3952890141
H 5.5945211196 -2.0523218857 -2.1365005636
H 4.7345974166 -1.7186713037 -3.3577849989
46

Ca -0.4829051652 -0.2806196697 0.8204904810
O -2.2807003458 3.4069554770 1.3897316598
H -2.8639983306 3.4417997610 2.1549454990
H -2.3145615181 4.2893029396 1.0064582559
O -1.2998310605 1.0107482187 -2.9120893710
H -1.7901850937 1.3273781717 -2.1368348662
H -1.4909271679 1.6112660746 -3.6383617742
O 2.9178405266 1.6320725765 1.9125099550
H 3.3248749454 1.7045123424 1.0328742325
H 3.5377436251 1.9990531997 2.5487827813
O 0.7563818501 0.7915488227 -0.9890264282
H 0.3594291962 0.9698613745 -1.8525550065
H 1.6902453117 1.0515301642 -1.0189607748
O -2.2898340039 1.0769124530 -0.2103704026
H -2.4504597889 1.9148468090 0.2606480983
H -3.1411269734 0.6223661781 -0.3451819670
O 1.6788249657 -0.8773014088 1.5838170357
H 2.2083839005 -1.5018304553 1.0607973682
H 2.2676377358 -0.1718821354 1.8954667109
O 0.1187873091 1.7851609004 1.9316595981
H -0.4203228288 2.5832660120 1.8747155926
H 1.0568803680 2.0352839243 1.9537834855
O 2.8133414860 -2.5413645200 -0.3905611690
H 3.0657534873 -3.4531375032 -0.2171323941
H 3.5659098957 -2.1312039302 -0.8452231749
O -0.0325881761 -2.1787777598 -0.6373736549
H -0.5706567428 -2.2121248504 -1.4436079373
H 0.8926991772 -2.3377258567 -0.8764131377
O -1.3695397938 -0.4097674537 3.0725966174
H -1.0073836526 -0.0282888508 3.8763895890
H -1.9847882611 -1.1025222206 3.3293343966
O -2.3903146020 -1.8741860090 0.9484160637
H -2.1641239450 -2.7916491375 0.7687865993
H -3.1952715984 -1.6874222446 0.4354317755
O -2.0492034319 -1.6826486404 -2.6780440301
H -1.7815171303 -0.8087597065 -3.0161195476
H -2.1730048272 -2.2508038549 -3.4445369533
O 3.5565040113 1.4400451288 -0.8387633370
H 3.8904754659 2.2094691966 -1.3096511169
H 4.1017916444 0.6874006441 -1.1258040631
O -4.1383865915 -0.8562417316 -0.9370856706
H -3.6649152096 -1.2292608717 -1.7012751755
H -5.0813752154 -0.9252242860 -1.1099616708
O 4.9580707960 -0.9674824771 -1.5779279023
H 5.8173583721 -1.0886576212 -1.1593597790
H 5.1147088538 -1.1044101361 -2.5184021031
46

Ca -0.4743906216 -0.0175878511 0.5301593253
O -2.7044408703 2.4971062978 1.7234262826
H -3.3211696181 3.1388928440 2.0885113952
H -3.2255340860 1.8899416344 1.1802962608
O -0.2005982822 2.2085608515 -2.8028898825
H -0.4433250552 2.6825502352 -1.9919849799
H -0.0157640745 2.8660724132 -3.4798159596
O 1.9383287596 2.4513388041 1.4696581026
H 2.6210765329 1.8680218139 1.1012087410
H 2.4099610520 3.1998173503 1.8477916629
O 1.2138711538 0.4055606621 -1.1617926505
H 0.9649734527 0.9908380316 -1.8946982836
H 2.1439450495 0.5957614574 -0.9429238084
O -2.7862081443 0.3096722310 -0.2344143118
H -2.7756763042 0.4146110700 -1.2021834436
H -3.2688472064 -0.5222278249 -0.0867829442
O 1.4352682339 -1.1921924925 1.3989163354
H 1.6689056574 -1.9747495632 0.8621377828
H 1.5224085115 -1.4396463911 2.3231332921
O -0.5486974516 2.4420118855 -0.0072284580
H -1.2695770045 2.8057866540 0.5384743428
H 0.2874946459 2.7380200712 0.3915190101
O 1.9041712608 -3.0223600149 -0.5876929434
H 1.9369014317 -3.9823125864 -0.5340174564
H 2.7871110540 -2.7373646975 -0.8757985846
O -0.7719874923 -1.8674208330 -1.0910036822
H -1.0081051060 -1.4309595046 -1.9279029765
H 0.0817963259 -2.3077982497 -1.2267545517
O -0.3138541323 1.0508278191 2.6963508690
H -1.0826837596 1.6095246241 2.8760117297
H 0.4679130364 1.6171583723 2.7564573345
O -1.7540449390 -1.4412718015 2.0011626542
H -1.8112781578 -1.4581695684 2.9592798860
H -2.4550451588 -2.0102588525 1.6442201807
O -1.9274645418 0.0233919238 -2.8973156407
H -1.3791195461 0.8014032157 -3.1073243675
H -2.4529386527 -0.1635310605 -3.6809431212
O 3.7813472572 0.8657136508 -0.2083047909
H 4.4418773517 1.4465732606 -0.5978217480
H 4.1627788991 -0.0259202321 -0.2320980545
O -3.4008958244 -2.4577342026 0.0580894226
H -2.6950162298 -2.7841039508 -0.5150445507
H -4.1513826579 -3.0509121814 -0.0410123699
O 4.5789175091 -1.8984249784 -0.8588371429
H 5.1969065746 -2.3671058259 -0.2871442107
H 5.0001347480 -1.8904190870 -1.7252802587
46

Ca 0.3037122189 -0.0809027881 -0.0603260751
O -2.5237432161 2.7544535763 0.6751851471
H -2.9384945555 3.5664672088 0.9806102126
H -3.1470748227 2.3160015788 0.0717104326
O -1.5030411188 1.6825989688 -3.1499569318
H -0.9269228594 2.2031999187 -2.5674166947
H -1.6102600452 2.1840335275 -3.9641113481
O 1.8395612882 2.8635268144 1.0501028355
H 2.7519682051 2.5370441403 1.0428874849
H 1.8529346938 3.6846356513 1.5494670853
O 2.4566515752 0.4288236549 -0.9613858266
H 2.6730828779 0.6115249214 -1.8780326824
H 3.2285670297 0.6648428458 -0.4136122320
O -2.0254217864 -1.0539305935 -0.2083127126
H -2.6893488212 -0.4235987993 -0.5546673823
H -1.9737183302 -1.7643437679 -0.8562684187
O 1.7374922894 -0.2936051564 1.9599388774
H 1.3637707996 0.3632199516 2.5607863318
H 1.5787118192 -1.1630677658 2.3766759283
O -0.1831277721 2.2376826371 -0.7065993778
H -0.9488134333 2.6175207129 -0.2324762070
H 0.6047591603 2.6650625661 -0.3142153355
O 1.2274411739 -3.1505336482 -2.8483188022
H 0.7695326129 -3.8803929813 -3.2780531005
H 2.1411830571 -3.2195795051 -3.1431423842
O 0.0307304983 -0.5652663474 -2.4197638783
H -0.4499324958 0.0066132190 -3.0360955804
H 0.3774396286 -1.3406207444 -2.8838158241
O -0.9293499922 0.7638942779 1.8978261656
H -1.3845866590 0.0723904859 2.4040035256
H -1.5608948827 1.4886520350 1.7641579990
O 0.6313588708 -2.4481404245 -0.1368146012
H 0.9482356502 -2.9265555822 -0.9177510284
H 0.8386280266 -2.9518014664 0.6649380812
O -3.5326940846 1.0153706085 -1.3128486651
H -3.0056078550 1.2691657254 -2.0947105302
H -4.4466573391 0.9374984954 -1.6035701216
O 4.1271373421 1.1420092632 1.0719532344
H 5.0747929847 1.2333979154 1.2078469549
H 3.8026252744 0.4939952254 1.7101327171
O -1.8742622212 -1.8095220011 2.5976653438
H -2.2275063709 -1.8408455209 1.6959492032
H -2.5781161768 -2.1040773552 3.1841378182
O 0.7903894888 -2.8238874943 2.6194855878
H -0.1528879173 -2.6785540787 2.8067445029
H 1.1049176760 -3.4921641291 3.2353416530
46

Ca -0.1439551144 0.3542643223 0.7941873596
O -3.3287613659 2.7153690425 1.0990556325
H -4.1021931952 3.2835297168 1.1576347089
H -3.5700171492 1.9257857184 0.5933466665
O -0.2300531437 2.5152911803 -2.7291481759
H -0.5634503186 2.9389370889 -1.9226383501
H -0.1371427970 3.1978505763 -3.3999625726
O 1.1158843644 1.9322050532 2.2322567487
H 2.0244182025 2.0123586205 2.5337314614
H 0.5501910364 2.1150406029 2.9917584189
O 1.3654802480 1.0313494309 -0.9664910055
H 1.1387141650 1.5783146051 -1.7326755104
H 2.2914451178 0.7493431352 -1.0367953195
O -2.5268372539 0.2922206196 -0.1188996271
H -2.4493963091 0.2776239716 -1.0917503048
H -2.8949956027 -0.5764707172 0.1177559190
O 1.8847595749 -0.9433825318 1.2147141835
H 2.7183194527 -0.5668208275 0.8932049247
H 1.8830901259 -1.8436164790 0.8544440243
O -0.7905014677 2.7358626085 0.0389653381
H -1.6728471159 2.9883529740 0.3733650449
H -0.1529316190 3.3057026744 0.4838192567
O 1.9205177042 -3.1782627290 -0.6005114510
H 1.7869222081 -4.1225159538 -0.4788603932
H 2.7655135965 -3.0836138868 -1.0715413103
O -0.4058933306 -1.5904131048 -0.8783921938
H -0.6291020563 -1.1911707296 -1.7357408094
H 0.3963684965 -2.1275726502 -0.9987595472
O -1.5165243436 1.3114545430 2.6821311796
H -2.2712449765 1.8747948543 2.4441479970
H -1.8428926289 0.6457960071 3.2949575835
O -0.8748585138 -1.4759423819 2.2747152848
H -0.3349371233 -2.0059826422 2.8663531703
H -1.5779447238 -2.0469472037 1.9205485791
O -1.6444544405 0.1174024668 -2.7698635898
H -1.1813702414 0.9525307813 -2.9701421793
H -2.1536035991 -0.1131591830 -3.5521636484
O 3.9565119455 -0.0110404398 -0.5579808757
H 4.7244841286 0.5581814607 -0.4555351938
H 4.2629614800 -0.8018071629 -1.0316611438
O -2.7258605168 -2.4602649955 0.4904171062
H -2.0458998216 -2.6027347730 -0.1851315987
H -3.3797926024 -3.1607009958 0.4110529826
O 4.4685509971 -2.5584052372 -1.7919019450
H 5.2192038160 -3.0490879981 -1.4400401568
H 4.5648910989 -2.6004690880 -2.7490951675
46

Ca -0.2255474987 -0.2531670481 0.1706783145
O -2.7103166978 2.8564524971 1.2472402773
H -3.2020459712 3.5222581143 1.7361458568
H -3.0575549517 2.8373055650 0.3427990291
O -0.5535141481 3.0158483377 -2.7459353435
H -0.2647943789 3.8406524367 -2.3412431542
H -0.5308885087 3.1772511092 -3.6955540805
O 2.6589382221 2.3871465979 0.9891412460
H 3.1975275273 1.9884155818 0.2871713364
H 3.2049575843 3.0451351520 1.4286954265
O 0.9191180470 0.6529050189 -1.7950508376
H 0.6042686672 1.5012628580 -2.1407611419
H 1.8879034945 0.6990078116 -1.7170629384
O -2.1753267143 -0.5471061875 -1.3080674515
H -2.6345790350 0.3070138901 -1.4411796531
H -2.0419687890 -0.9271895766 -2.1817363355
O 1.6906863953 -0.1751901331 1.5597636344
H 2.0713063799 0.7076663867 1.6965990074
H 2.4445662690 -0.7815142610 1.4433769511
O -0.1270474744 2.1517409317 0.5023976976
H -0.8132656566 2.6575890299 0.9638113930
H 0.7441088470 2.5254988329 0.7096372121
O 1.7351480563 -3.9340360389 0.4141962852
H 1.0328201582 -3.7637751448 1.0586096304
H 1.8677256649 -4.8863691928 0.3829551143
O 0.5649572839 -2.0651761679 -1.2226807514
H 0.9559334327 -1.8586413060 -2.0756430815
H 0.9772289099 -2.8817762805 -0.8911490589
O -2.0772252976 0.1881093565 1.6360806621
H -2.7870112223 -0.4586891543 1.7338239839
H -2.4593655680 1.0776382019 1.7283957128
O -0.4518839014 -2.3548853336 1.5655919257
H -0.3555282159 -2.1221763595 2.4958757389
H -1.3869437940 -2.6128313767 1.4516569578
O -3.0121025267 2.1057888075 -1.5623409954
H -2.2546999515 2.5060206047 -2.0264263861
H -3.7969539452 2.3484237678 -2.0641038483
O 3.6433125243 0.5281087504 -1.0129870387
H 4.3979240607 0.6424590609 -1.5987922610
H 3.7701075346 -0.3301195787 -0.5730992887
O -3.1521008148 -2.3531568873 0.9063353992
H -3.2220283162 -2.0447987739 -0.0058925526
H -3.8726443401 -2.9739966328 1.0500842317
O 3.6948994395 -1.8615351730 0.6578923622
H 4.5125593961 -2.0909022135 1.1100044865
H 3.2064262897 -2.6938932428 0.5361379812
46

Ca -0.3163428917 -0.4609593286 0.8964110526
O -2.0026382388 3.3421357105 1.2045387822
H -2.5151041972 3.4002041111 2.0174258856
H -2.0947171957 4.2042646091 0.7860224699
O -0.8443777263 1.2054657727 -2.9204918444
H -1.2829603844 1.3097077613 -2.0577059610
H -1.4123530676 1.6326970530 -3.5694506427
O 3.8971872426 -0.3805296572 0.9442985971
H 3.7033809208 0.5141137324 0.6128235813
H 4.7664631025 -0.3362851197 1.3540026581
O 1.2098701435 -0.2180871140 -0.9396524994
H 1.7649450866 -0.9940662765 -1.1330039236
H 1.5259866914 0.5034570617 -1.5084883320
O -1.9734855002 0.9644243203 -0.3098432282
H -2.1588142176 1.7942659320 0.1672224097
H -2.8208022980 0.5355898249 -0.5331767918
O 1.5684227122 -1.2020426086 2.1612192487
H 1.6679650364 -1.7942619022 2.9100420532
H 2.4654914089 -0.9311059646 1.8815494273
O 0.4655667022 1.7683119279 1.3012592360
H -0.1192750645 2.5293841816 1.4062516108
H 1.3355130172 2.0839693921 1.0000050984
O 2.8215734942 -2.4445161175 -0.7911118156
H 3.4422417795 -1.9619990889 -0.2235380642
H 3.3473827028 -3.0141736029 -1.3595404322
O -0.0271467707 -2.6750945101 -0.1353090564
H -0.4080806173 -2.6447914751 -1.0253839055
H 0.8995260500 -2.9356617880 -0.2451657404
O -1.3374603772 0.0269091840 3.0530306864
H -0.9541279648 0.3798790559 3.8604191918
H -2.1124065085 -0.4873475743 3.3005344095
O -2.4185740252 -1.7545072923 1.1571064330
H -2.2918705299 -2.7074803258 1.2058707826
H -3.1132243539 -1.6117295780 0.4905697319
O -1.4884401495 -1.6804351833 -2.5713596787
H -1.1013296603 -0.8332691595 -2.8495191763
H -1.5228448735 -2.2282511505 -3.3621584489
O 2.9783071279 2.2684195379 0.1429553506
H 3.5321897244 3.0255436147 0.3575731741
H 2.7098142540 2.3763242827 -0.7851115506
O -3.7844649179 -0.9309543376 -1.1163164665
H -3.2005471611 -1.3066572747 -1.7995704697
H -4.6912671904 -1.0012816352 -1.4276397404
O 1.8488336198 2.0116582328 -2.4733016587
H 2.4043972667 2.0785613693 -3.2552830262
H 0.9287390064 1.9757569356 -2.7878248284
