46

K -3.4948063358 1.4226642216 0.5330847023
O -0.9644219929 1.0598853113 1.5377228064
H -0.0800189245 1.3585384788 1.8097859931
H -0.9374112971 0.0847851700 1.5986554699
O -1.2942936705 1.5025380390 -1.1727326824
H -0.8644319776 1.4204501244 -0.3014651180
H -0.6442907512 1.9434950352 -1.7303403984
O 1.7376553439 1.6831987600 -0.9993698505
H 1.5769368306 0.7457342244 -1.2249107992
H 2.6470037694 1.8478394673 -1.3076210598
O 1.7744760009 -1.3722455084 1.4194284828
H 2.6852932656 -1.7290839454 1.3912312998
H 1.8619601961 -0.4738603538 1.7642613246
O 4.5103827441 1.5321268239 -1.4229757286
H 4.7273538051 1.3973071198 -0.4738536080
H 5.1911905391 2.0962749160 -1.7960123679
O 1.7963397476 1.6460896262 1.6932682483
H 2.0123207488 2.4901881062 2.0987569120
H 1.8130617918 1.7738863366 0.7095727800
O -4.2473323360 -2.0921094381 -1.1897410235
H -4.1916330174 -2.0534733611 -0.2191146586
H -4.6549802449 -2.9304731222 -1.4205153914
O 1.3599657476 -1.0575454605 -1.3449363673
H 0.5056370877 -1.4002117200 -1.6383189336
H 1.4356969752 -1.2684586518 -0.3948321495
O 4.7357932247 0.8878290564 1.2119372412
H 4.8219550643 -0.0783301294 1.2605887598
H 3.8822496630 1.0850833787 1.6135675382
O 4.1985688779 -1.3420745496 -1.6914775721
H 4.4257826389 -0.4066562877 -1.8074350721
H 3.2507361477 -1.3934556403 -1.8782857397
O 4.4265394664 -1.9279072972 0.9109032848
H 4.4271894392 -1.8230139867 -0.0736802277
H 5.0041173592 -2.6636985177 1.1248795942
O -1.4960250285 -1.2948728882 -1.3886920471
H -1.5266723595 -0.3317911910 -1.5301883130
H -2.3647633161 -1.6526052234 -1.6239409596
O -5.1201292601 0.5669817563 -1.3694786322
H -5.7021225332 0.9005519644 -2.0546546653
H -5.0191870467 -0.3850569196 -1.5287590684
O -1.0462530847 -1.7028145134 1.3013143836
H -0.1464296251 -1.9685842361 1.5434184850
H -1.0873737219 -1.6889640709 0.3234450619
O -3.7315958048 -1.2860619247 1.4797379916
H -2.8253605321 -1.6001486410 1.6649910092
H -4.2722331676 -1.5688403524 2.2219112659
46

K -1.4591610093 -1.9883574874 0.2922442230
O -3.9463304849 0.9097772465 1.9700626950
H -4.5326316225 1.2944986921 2.6256551189
H -3.9872159099 1.4899518485 1.1633869851
O -1.2346754587 0.3451870202 1.6800872063
H -2.0224994678 0.6605283809 2.1501729646
H -0.4348568418 0.5746775987 2.1768169531
O -1.1035285577 2.0149656557 -0.6092253775
H -1.0700610902 1.5549923488 0.2483037682
H -0.2319740393 2.4215770874 -0.7209164354
O 1.7216631853 2.0039370120 -0.6307072953
H 1.6578842942 1.2407452120 -1.2372135594
H 2.6461340212 2.2921753025 -0.6674029391
O 1.2172228166 -1.6947134999 0.4776551757
H 2.1002403509 -2.0982530874 0.5196366285
H 1.3101817493 -0.8792611716 1.0168913053
O 4.5616033253 1.9156646069 -0.3873197729
H 4.6369255429 1.5137902027 0.4965142764
H 5.2859433778 2.5393948398 -0.4767180706
O 1.4951326333 0.7140981956 1.8058301734
H 2.3855536924 0.6871766824 2.1864254177
H 1.5831834305 1.2709640597 1.0025666582
O -4.3983459252 -0.1862293002 -1.9263895142
H -4.5350268170 -0.7303911436 -1.1332663358
H -5.1399349092 -0.3484928010 -2.5142774497
O 1.3721197430 -0.3936200589 -2.0314251667
H 0.5208719473 -0.4575316143 -2.4838878358
H 1.2755377434 -0.9323007928 -1.2240551347
O 4.3449046129 0.3466027941 1.9703707298
H 4.3524047998 -0.5555522190 1.5906036514
H 4.9605290122 0.3435455851 2.7073044770
O 4.2195070496 -0.6107053498 -1.7474908983
H 4.4410164770 0.2989405296 -1.4963933071
H 3.3625003344 -0.5617582222 -2.1936251854
O 4.0384553155 -2.0021098184 0.5136644834
H 4.1672403486 -1.5730347103 -0.3718873101
H 4.6140928086 -2.7700589756 0.5393696977
O -1.5262438709 -0.3984522400 -1.9232706604
H -1.3767708501 0.5089632396 -1.5902562165
H -2.4238894481 -0.3816398984 -2.2840262011
O -3.9133772480 2.2115574504 -0.3385643174
H -3.0025859891 2.4605850688 -0.5573419326
H -4.1837350698 1.5890532678 -1.0291581706
O -4.1992914942 -1.4684054046 0.6380820317
H -4.8954433215 -2.0488011891 0.9559327833
H -4.2272930843 -0.6707498920 1.2119036388
46

K -1.4326073212 2.2623833607 -0.3484461217
O -4.3925866955 -0.0550223020 1.9105589475
H -5.0956994831 -0.1015023626 2.5622777776
H -4.3549873049 -0.9207440751 1.4704981554
O -1.5622491296 0.4797917999 1.8127454958
H -2.4783244563 0.4723483102 2.1273753821
H -1.4202668592 -0.4327537853 1.5136720288
O 1.2827201434 1.8709147853 -0.5226425413
H 1.3276802464 1.0798198979 -1.1022228379
H 2.1834526830 2.2303386792 -0.5579519806
O 1.4492104806 -1.8618073665 0.5315264864
H 2.3533819322 -2.2125332422 0.5620183292
H 1.4572160457 -1.0634670182 1.1009217882
O 4.1453478183 2.0019407950 -0.5090159283
H 4.2206774803 1.5636634399 0.3757300330
H 4.7673031822 2.7333600054 -0.5128536666
O 1.2989035018 0.5218092747 1.9120054516
H 0.4356191158 0.6220370343 2.3350193379
H 1.2634480526 1.0825030049 1.1104071094
O -3.8934425635 -0.8664218392 -2.0802627561
H -3.9586610938 -1.5025857137 -1.3475802283
H -4.4357656350 -1.2010208109 -2.7976857464
O 1.4933389002 -0.5088769420 -1.9252866692
H 2.4051621413 -0.5492234245 -2.2474153903
H 1.4702716083 -1.0941560901 -1.1446533176
O 4.1626533254 0.5668844368 1.7452974974
H 4.3098449993 -0.3546039682 1.4856855726
H 3.2875967763 0.5859527517 2.1567591310
O 4.3705309470 -0.3579257945 -1.9470218858
H 4.4119554547 0.5447302060 -1.5694052143
H 5.0147786824 -0.3933231906 -2.6580376639
O 4.2786286807 -1.9818156134 0.3521916559
H 4.4412112913 -1.5547164070 -0.5093957332
H 4.9498189576 -2.6597073557 0.4602197239
O -1.2350655330 0.0392330379 -1.7587550836
H -0.4617653567 -0.3125250085 -2.2160894041
H -2.0280828486 -0.3837023639 -2.1168760206
O -4.0189774550 1.5729207267 -0.4819000838
H -4.3570935862 1.1867873489 0.3371420575
H -4.1516879449 0.8820066687 -1.1459661506
O -1.1487268636 -2.3690967267 1.2420892278
H -1.0622662821 -2.7986339571 2.0973386210
H -0.2517607785 -2.3875931807 0.8525838418
O -3.7632748621 -2.3589525934 0.3227908707
H -2.8145041432 -2.4701411000 0.5306676904
H -4.1600584015 -3.2303289001 0.3998027777
46

K -1.4625237558 -2.0247413548 0.3579220784
O -3.9289116666 0.8598145711 2.0642537226
H -4.4750211281 1.3296520825 2.6982833253
H -4.0383495762 1.3158302357 1.1952142195
O -1.2203874677 0.3613774834 1.6938075222
H -2.0229061131 0.6417116851 2.1641687134
H -0.4338861382 0.5831031585 2.2127657260
O -1.1513824093 1.9511910647 -0.5984311510
H -1.0996124384 1.5080316819 0.2698126474
H -0.2893116466 2.3725163891 -0.7259932866
O 1.6754496138 1.9752063831 -0.6390875266
H 1.6026900936 1.1972186999 -1.2255003308
H 2.5997584921 2.2602938034 -0.6959510355
O 1.2282131712 -1.7127722845 0.5314682712
H 2.1126893528 -2.1125847560 0.5696030932
H 1.3201364705 -0.8934376211 1.0648012764
O 4.5233053575 1.8925319391 -0.4450963234
H 4.6183528507 1.5020004382 0.4421948206
H 5.2446933503 2.5158118041 -0.5578251870
O 1.5174781483 0.7124818798 1.8272743548
H 2.4168173517 0.6959835068 2.1861486448
H 1.5799073424 1.2613798051 1.0172390584
O -4.2749944500 0.3711506513 -2.8801971452
H -5.0223323158 -0.2281174115 -2.9599144524
H -4.3229767837 0.9421023127 -3.6526368788
O 1.3116244378 -0.4512704514 -1.9842898941
H 0.4416216421 -0.5235267487 -2.3995153685
H 1.2500033877 -0.9763193717 -1.1635026211
O 4.3750078002 0.3592527213 1.9348324328
H 4.3792383778 -0.5488425152 1.5693514412
H 5.0038553257 0.3702916665 2.6603855572
O 4.1684622953 -0.6504168009 -1.7677918225
H 4.3873425066 0.2632877978 -1.5292918245
H 3.3003426595 -0.6137144723 -2.1928962730
O 4.0546980905 -2.0110347078 0.5200892869
H 4.1589075299 -1.5967382336 -0.3750385334
H 4.6336911636 -2.7764992386 0.5437529542
O -1.5917894191 -0.4482472640 -1.9090519598
H -1.4384223727 0.4492784331 -1.5484483417
H -2.4155650039 -0.3710715647 -2.4079478796
O -3.9642605147 1.9955268861 -0.3754797598
H -3.0539864254 2.2770797357 -0.5541788330
H -4.2229196958 1.4749451148 -1.1467088117
O -3.9261047802 -1.8326895578 1.3484311067
H -4.6859235931 -2.3606604765 1.5988984471
H -4.0889806393 -0.9355755150 1.6931586432
46

K -1.7601369406 1.7379507200 0.1693509122
O -3.9115816996 0.4809835938 1.5801212814
H -4.8026709090 0.8055246228 1.7260075707
H -4.0011486103 -0.3780739037 1.1349765825
O -1.2379786556 -0.0011716609 2.3884295986
H -2.1543419255 0.1344886843 2.6588727598
H -1.1997282376 -0.9178542709 2.0662036838
O 0.9928843148 1.7614936052 -0.2410246487
H 1.0817981787 0.9912416055 -0.8414300493
H 1.8288106964 2.2375934872 -0.3626586792
O 1.6211354077 -1.9675851299 0.6618740712
H 2.5396189444 -2.2674348006 0.5821000778
H 1.6509689515 -1.1957277364 1.2677650608
O 3.8376703887 2.1611665694 -0.5684240839
H 4.0694697762 1.7046309971 0.2802258278
H 4.3857297301 2.9479281248 -0.6187457794
O 1.5282728191 0.3611733621 2.1292438486
H 0.7208131104 0.3445645093 2.6615321428
H 1.3115746720 0.9320006194 1.3655609746
O -4.0708438762 -0.7708478168 -2.2446535286
H -4.0921042945 -1.3400713791 -1.4561604489
H -4.5411875336 -1.2330232364 -2.9416602127
O 1.3248656656 -0.5677013562 -1.7128623899
H 2.1882949839 -0.4976001208 -2.1461695194
H 1.4589107861 -1.1630653792 -0.9487854391
O 4.3024819456 0.6765546246 1.6035356756
H 4.4926552054 -0.2217484461 1.2954784745
H 3.4831130687 0.6037942291 2.1140257287
O 4.1161744431 -0.1205464498 -2.1049273757
H 4.1169927691 0.7710625518 -1.6976916271
H 4.6682979946 -0.0713405063 -2.8887818029
O 4.4270268480 -1.8361829700 0.1252238129
H 4.4552241187 -1.3683851051 -0.7292910744
H 5.1633716282 -2.4523430760 0.1288033194
O -1.4102492264 -0.4693258055 -1.3372510515
H -0.5594049048 -0.5956024698 -1.7821097076
H -2.1072002921 -0.6244369764 -1.9876037817
O -3.7797002330 1.9991724538 -1.6040038711
H -4.3020538510 2.6331971631 -2.0980665725
H -4.0365973218 1.1222795304 -1.9298615882
O -1.0174138577 -2.6346072158 1.2653959083
H -0.9855787140 -3.3512932102 1.9045287273
H -0.1109010439 -2.5679986956 0.9089780769
O -3.6423279020 -2.0376474092 0.2391934168
H -2.6900893489 -2.2143224782 0.3508062065
H -4.0932603014 -2.8170863571 0.5739438826
46

K -1.0978944544 1.0819456292 -0.5862552805
O -4.2628948202 -1.2326744566 1.3539436102
H -4.0108391728 -0.9762416934 2.2552960728
H -5.0269996088 -1.8069850519 1.4315112971
O -1.7774822507 -1.3953933947 0.2424987587
H -2.7105917329 -1.5305775130 0.4958950052
H -1.5005610377 -2.1253435398 -0.3356406378
O 1.3229849568 -0.3163838066 0.0752417462
H 2.1605917042 -0.0256319873 -0.3178409492
H 1.2309877765 0.1960985718 0.9018974244
O 1.2955837839 -3.0394099543 0.7962575422
H 1.4026994082 -2.0916557756 0.5896215461
H 0.9573018077 -3.0596408023 1.6976281982
O 2.6812107321 2.8849910967 0.7730279518
H 3.3576788599 3.5137119339 1.0352765539
H 3.0778132402 2.3193770993 0.0861597801
O -0.5302672153 -1.3909308809 2.7620607611
H 0.1124707854 -0.6708374035 2.8091528304
H -0.8548674212 -1.4084701063 1.8392786864
O 1.7238900689 -2.3732888389 -2.8498896877
H 0.9266360428 -2.6741342671 -2.3765111972
H 2.3944037433 -3.0384372079 -2.6808382531
O -1.8988618888 1.8243436078 2.0400238936
H -2.2334843208 2.7093585043 2.2028071170
H -2.3678519826 1.2275383465 2.6544348546
O 3.5612829442 0.9847624871 -1.1318521519
H 3.2176038256 0.8244866181 -2.0341313518
H 4.4535706092 0.6307667090 -1.1111323725
O 2.2760406794 0.1813976585 -3.4414641221
H 2.6541158019 0.2222910525 -4.3234753597
H 2.0968885581 -0.7723550151 -3.2579565610
O -0.3804392564 -3.3712590834 -1.2389621850
H 0.2006787713 -3.4476826675 -0.4427904929
H -0.7005890738 -4.2520988842 -1.4470594717
O 0.0498240103 3.5070784342 -0.0398489798
H 0.9931134815 3.4562515812 0.1875900406
H -0.0664955226 4.3480392748 -0.4865919946
O -0.4067516655 1.1204055550 -3.1713475825
H -0.8458359379 1.1886432936 -4.0210304740
H 0.5087453122 0.8587694794 -3.3643261038
O 0.8096389673 1.2146698607 2.3079752390
H 1.4704121921 1.9026343675 2.1523397048
H -0.0673227434 1.6392347268 2.2910432352
O -2.8566739597 -0.2704235357 3.6189217119
H -3.0660170760 -0.2673190614 4.5556225054
H -2.0167613290 -0.7712749237 3.5088320945
46

K -1.8102900260 -1.7503197420 -0.2350039170
O -3.9131383654 1.0273627767 2.0659311530
H -4.3572784707 1.4890469293 2.7808101833
H -4.0117741021 1.5804933334 1.2687220159
O -1.2577396184 0.3739475195 1.4639717987
H -2.0052009596 0.6484571745 2.0161675055
H -0.4321134457 0.4577576221 1.9655889136
O -1.1696351726 1.9376664901 -0.7986154560
H -1.1372482904 1.4388584850 0.0440165686
H -0.3049254122 2.3806130284 -0.8410757896
O 1.5754944812 2.1531087007 -0.5604498746
H 1.7800133627 1.4261730333 -1.1751705652
H 2.4062360238 2.6520632474 -0.4409423518
O 0.8985989206 -1.7779516162 0.1974364264
H 1.6311623782 -2.4184290501 0.2791630990
H 1.1045895427 -1.0704949908 0.8403959150
O 4.1145962215 2.9918826113 0.0230594287
H 4.3849059495 2.3019176306 0.6485949411
H 4.5404889196 3.8066647095 0.2949637480
O 1.4771131202 0.5165235022 1.6804817737
H 2.3947367227 0.4503075006 1.9791479021
H 1.5113942201 1.1692852015 0.9491710160
O -3.8957914641 -0.3546568214 -1.4568591881
H -4.7605171198 -0.7654439311 -1.3831224293
H -4.0297774750 0.5736514641 -1.2080620769
O 1.8413342091 -0.2997864129 -1.9290104897
H 1.2076747730 -0.3156403920 -2.6570083348
H 1.4289718609 -0.8626793680 -1.2376102253
O 4.3782515222 0.5121767239 1.4003428138
H 5.0584507954 0.1943916200 1.9986759222
H 4.4525648324 -0.0228947495 0.5886202314
O 4.3836056309 -0.9026903751 -1.0712588493
H 5.1394593908 -0.7765450479 -1.6497658057
H 3.5901926712 -0.6511613341 -1.5840676419
O 3.2865033988 -3.1387840514 0.2931327839
H 3.8548801395 -2.5780808655 -0.2567802687
H 3.5801053042 -4.0435649582 0.1721698700
O -0.9640158169 -0.2825775206 -2.5359890713
H -1.0710139683 0.5654676702 -2.0653337064
H -1.7168617890 -0.3340158472 -3.1313905667
O -3.8282604231 2.3163385134 -0.4353849359
H -4.3068862448 3.0899659753 -0.7416850485
H -2.8816269457 2.4565791636 -0.6438594572
O -3.9083736772 -1.8109557677 1.5075389267
H -4.3721959702 -2.3727426060 2.1309858718
H -4.0810685367 -0.8979733701 1.7845133057
46

K -1.5262322395 2.1351130332 -0.3421744762
O -4.2500256515 -0.0015625766 1.8971805913
H -4.8828152794 0.2155444755 2.5856647951
H -4.4244614246 0.5968544550 1.1525625378
O -1.5155119039 0.9572304938 2.0084124406
H -2.2892691936 0.4067890616 2.1917432601
H -0.7378325727 0.4586790925 2.2872425636
O 1.1654033203 1.6865697659 -0.5613307497
H 1.2470640483 0.8750509115 -1.1083523262
H 2.0536008829 2.0712709218 -0.5783379916
O 1.6391082014 -2.1354070974 0.4491613052
H 2.5586595775 -2.4093636282 0.5556831931
H 1.5240807635 -1.3830085010 1.0647510582
O 4.0572466205 1.9770107300 -0.4246348046
H 4.2180061121 1.6095969135 0.4680644096
H 4.5957946656 2.7685862584 -0.5003348460
O 1.3203705652 0.2306066272 1.8730843333
H 2.1861493406 0.4172260739 2.2581929629
H 1.2598531923 0.8175724913 1.0971758036
O -3.9684343221 -0.9523813791 -1.9240503526
H -4.0174831154 -1.5725923468 -1.1391328796
H -4.5096627074 -1.3298585272 -2.6206714781
O 1.4323664711 -0.7200261687 -1.8965100753
H 2.3086926110 -0.7176322321 -2.3014131211
H 1.5120689598 -1.3227777598 -1.1243165349
O 4.2607331644 0.5180457103 1.9238603570
H 4.4657566836 -0.3662209663 1.5610201497
H 4.8660875701 0.6667704087 2.6543920966
O 4.3619743916 -0.3774326979 -1.9361907423
H 5.0064671867 -0.3761448663 -2.6483048189
H 4.3530559638 0.5238688122 -1.5627560849
O 4.5706106113 -1.8288937421 0.4569177070
H 4.6141849212 -1.4663904977 -0.4482420428
H 5.2755544443 -2.4765322996 0.5334290528
O -1.3058925730 -0.2150304063 -1.6418995029
H -0.5371554906 -0.5217116002 -2.1421102282
H -2.1125899087 -0.5983800110 -2.0257311044
O -4.2334266894 1.4252326614 -0.6063250821
H -4.9942282817 1.9518143130 -0.8627337049
H -4.2558619961 0.6212753046 -1.1720830676
O -1.2337286850 -2.0978326745 0.6212706364
H -0.3933352861 -2.5699552840 0.6338577753
H -1.1476256950 -1.4341519547 -0.0789898117
O -3.9458592487 -2.3758650483 0.2750179457
H -3.0023581249 -2.5437444082 0.4537738418
H -4.2121108917 -1.7656800815 0.9777520039
46

K -1.5458887460 -1.9509616770 0.8589579553
O -4.3198814539 1.1743557434 1.4943454750
H -5.0468371017 1.6356330847 1.9188408313
H -4.1466387721 1.6343624985 0.6315372111
O -1.6328676124 0.5295350018 1.9475501355
H -2.4748856048 0.9328047793 2.2047999729
H -0.9217900411 0.8201216962 2.5415482727
O -0.9166689420 1.8103847903 -0.4486577208
H -1.1393317256 1.4752633744 0.4397656915
H 0.0131450428 2.0806973032 -0.3851022990
O 1.8001048629 1.5488447504 0.2077666850
H 1.7760194728 0.7218931595 -0.3115274236
H 2.6533298375 1.9526877618 -0.0259974630
O 0.8909401233 -1.7808726088 1.8440051113
H 1.7446148705 -2.0237199152 1.4565665207
H 1.0450148439 -0.9505612180 2.3202115558
O 4.4277683024 2.0207168554 -0.6985346823
H 4.7927853348 1.3085967174 -0.1293043219
H 4.9994601380 2.7850665031 -0.6001827889
O 0.9928036716 0.9271605144 2.7649389611
H 1.5123659433 1.2960818882 3.4823576477
H 1.3914611121 1.2463082324 1.9270622605
O -3.8507239425 -0.4903843831 -2.2154144705
H -4.4632236373 -0.7341198509 -2.9134463606
H -4.1716237331 -0.9033865111 -1.3955023146
O 1.7576434598 -0.7064809898 -1.5154649878
H 2.2417797087 -0.2541419306 -2.2374254480
H 0.8357319118 -0.8393517063 -1.7896620273
O 5.0123594083 -0.0745800231 0.9230560520
H 4.4793052123 -0.8622951742 0.7139490182
H 5.8634267320 -0.3930004789 1.2299628481
O 3.3448492350 0.8567667798 -3.0346927752
H 3.8679671651 1.3413605237 -2.3746672724
H 3.8967812531 0.7448105730 -3.8102687781
O 3.2327659054 -2.1589104198 0.2202833597
H 2.7206181713 -1.7638696505 -0.5189857926
H 3.5634655655 -3.0059241319 -0.0871444714
O -1.0643406146 -0.7073181672 -1.5480021678
H -1.0107582819 0.2321928912 -1.2696500325
H -1.8537570086 -0.7530436520 -2.1058610113
O -3.6880077893 2.1285009519 -0.9082980325
H -2.7423854662 2.3374936774 -0.9357104187
H -3.8088072532 1.4071863321 -1.5425559192
O -4.2908818188 -1.3682554992 0.4724417248
H -5.0546409424 -1.9034310805 0.7021615456
H -4.4269693265 -0.4997027840 0.9125180965
46

K -1.1603765331 -1.8918561165 -0.4126196816
O -3.8324029831 0.5850037476 2.0525801677
H -4.3274897883 0.8270237793 2.8376575907
H -3.9303287821 1.3090653107 1.4105639833
O -1.1393172084 -0.0588105493 1.5465735500
H -2.0023581461 0.1941140476 1.9084776682
H -0.4702131599 0.2423388321 2.1705046507
O -1.2724645419 2.5889045480 -1.2893586311
H -1.1345608628 3.2480152395 -1.9738661243
H -0.3848930687 2.3881937878 -0.9300351809
O 1.2384291088 1.6849258498 -0.5207055780
H 1.2416358683 0.7936242675 -0.9353436021
H 2.1300575769 2.0264153943 -0.6767622988
O 1.4493647329 -1.9948838862 1.0397084439
H 2.3458885508 -2.3272200483 1.1735079170
H 1.4140102843 -1.1625670256 1.5524095440
O 4.1724963706 1.7906345156 -0.5788978419
H 4.3575443608 1.5401129926 0.3476039591
H 4.7545219197 2.5257750452 -0.7869284836
O 1.5281882640 0.5987562424 2.0924152687
H 2.4491602954 0.7494730584 2.3419453430
H 1.4005505831 1.0976954101 1.2647961154
O -4.8163261473 0.2656404807 -1.7044615177
H -4.6825994472 1.0920262580 -1.2123951198
H -5.6215831685 0.3637111941 -2.2165662691
O 1.3703677790 -0.9048003709 -1.4391983480
H 2.1915208192 -0.9932978895 -1.9383308723
H 1.5506926335 -1.3388456489 -0.5774964844
O 4.4459548755 0.6304832113 1.9431493507
H 4.5454346971 -0.3127846682 1.7082887496
H 5.1013837809 0.8226766179 2.6180901174
O 4.2948859751 -0.7760640997 -1.7215596817
H 4.3485364531 0.1701587705 -1.4899364592
H 4.9069089223 -0.9219001429 -2.4469577764
O 4.4202854434 -1.9280462308 0.8337601329
H 4.4656724999 -1.6856977544 -0.1108887254
H 5.0723627456 -2.6188505526 0.9748065630
O -2.0089318835 -0.1120670731 -2.2672617017
H -1.7125728417 0.7892577037 -2.0851420570
H -2.9729403160 -0.0473135186 -2.3130607656
O -3.8028833183 2.4114252782 -0.1138850766
H -2.8839390629 2.5084749877 -0.4354195346
H -4.1547785386 3.3023048945 -0.0456778182
O -3.7982491360 -1.7008425389 0.1972324924
H -3.9417250079 -1.1634354438 0.9866695469
H -4.3024693287 -1.2396183211 -0.4868580787
