46

Cl -4.5727294581 -1.6271748898 -0.0603329177
O -3.5580782249 2.5990949755 0.2336957681
H -3.7305949352 1.9704002252 0.9635114623
H -3.8298777369 2.1126238348 -0.5583646579
O -0.8715462617 2.0687862240 0.2465740021
H -1.7802588586 2.4430595561 0.2483123318
H -0.8870613460 1.3683564141 0.9275778570
O -1.2195078164 0.4094948502 -1.9789374085
H -2.1570180305 0.5040035598 -2.2206227238
H -1.0858527443 1.0558824287 -1.2553822674
O 1.5004954918 -0.3203651818 -2.0879034735
H 0.5982165205 -0.1151959393 -2.3805910785
H 1.4044274406 -1.1016285764 -1.5078535265
O 2.1492354877 -0.3001318894 1.7306406563
H 2.8954046275 -0.7962728058 1.3452529315
H 2.0406957320 0.4695825407 1.1356368436
O 4.3855441858 -0.3023799036 -1.8411953111
H 4.5709110879 0.5617538640 -1.4221457556
H 3.4896920975 -0.2267558323 -2.1990570839
O 1.8510543458 1.7311951754 -0.1821896787
H 0.9756472463 2.1362179415 -0.0568733688
H 1.7309987911 1.0917401984 -0.9116478399
O 1.2055611091 -2.3673899069 -0.1661057829
H 0.2413989798 -2.4966213565 -0.1975179815
H 1.3332322749 -1.7604454466 0.5783681189
O 4.6942947648 2.0025845266 -0.2756209881
H 4.9533613774 1.5962127950 0.5667014772
H 3.7428958294 2.1678028311 -0.1862324601
O 4.1795920509 -1.7775684654 0.4239243071
H 4.2716319154 -1.3136326585 -0.4443486368
H 3.6688616762 -2.5710740004 0.2385102188
O 5.1454941492 0.4112403694 2.1449996926
H 5.1271387043 -0.4516127417 1.7091984839
H 4.2651243142 0.4815338163 2.5309036170
O -1.4982541641 -1.7850363369 -0.1916270050
H -1.4284969708 -1.1001971265 -0.8829798576
H -2.4646283663 -1.9441249229 -0.1125807236
O -4.0182396829 0.6788011430 -1.9553783243
H -4.7079442920 0.6732338373 -2.6210118159
H -4.2331745698 -0.0817955702 -1.3542336767
O -0.8386079267 -0.1606517257 1.9556717847
H 0.0808577594 -0.3299199999 2.1969782077
H -1.0620419377 -0.8173148614 1.2618047222
O -3.7684484182 0.5572683550 2.1514392381
H -2.8632447669 0.2991213084 2.3642436499
H -4.1032860858 -0.1628499558 1.5842937600
46

Cl -4.3946535075 -1.7608115596 0.0333736067
O -3.7114685180 2.5521135028 0.0162118256
H -3.8800411766 1.9727590757 0.7873909590
H -3.9235863150 1.9886449442 -0.7420774190
O -0.9887833221 2.2113569217 0.1837989997
H -1.9151942395 2.5295264785 0.1148350702
H -1.0078050019 1.5600624396 0.9127740264
O -1.1799290175 0.3711536897 -1.9157181757
H -2.1148884422 0.3791570293 -2.1849082468
H -1.1076098729 1.0761714717 -1.2398347047
O 1.5702505377 -0.1226884309 -1.9881988876
H 0.6525435095 -0.0073893595 -2.2841530810
H 1.5331809119 -0.8509614180 -1.3369248124
O 1.8993858839 0.0718265388 1.9612412301
H 2.8342071046 -0.0520823920 2.1883695412
H 1.8862167976 0.8015401183 1.3086968416
O 4.4548065647 -0.1573395524 -2.1199700093
H 4.6091628955 0.6026801434 -1.5295433644
H 3.5213162486 -0.0848077599 -2.3652518627
O 1.7873385374 1.9467619212 -0.1069145176
H 0.9042298482 2.3461814806 -0.0380976243
H 1.7142423127 1.2980234687 -0.8358443539
O 1.4753712113 -1.9990246752 0.1099726424
H 0.5329441021 -2.2378381480 0.1031843332
H 1.5664255801 -1.3447831504 0.8303263812
O 4.6655223168 1.8376491013 -0.0848355147
H 4.7731073976 1.2281796598 0.6599622218
H 3.7435318769 2.1306851354 -0.0349898951
O 4.3425560467 -2.1019614783 -0.1349596973
H 4.4331797207 -1.5110839681 -0.9127247482
H 3.4063409478 -2.3494787739 -0.1190502110
O 4.6964521051 -0.3587762562 1.8583919377
H 4.6173287601 -1.0614247497 1.1603638043
H 5.3892437563 -0.6411794111 2.4564578821
O -1.2957937531 -1.7260140277 0.0103798905
H -1.2669762415 -1.0819959762 -0.7217556358
H -2.2460144176 -1.9632816599 0.0719343775
O -3.9828182544 0.4331196076 -2.0221425139
H -4.6368263662 0.3150417110 -2.7127524763
H -4.1572458327 -0.2962193415 -1.3709949335
O -0.9779229854 0.1279927036 2.0639521347
H -0.0690309274 0.0567366485 2.3849660354
H -1.0859693881 -0.5998343980 1.4163397605
O -3.9024558526 0.6634791513 2.0816577633
H -2.9876848603 0.4965582729 2.3429069548
H -4.1509936057 -0.1233547569 1.5608525017
46

Cl -1.5919532591 2.4390660862 0.1709038328
O 4.4639532143 0.0977507663 -1.9732933448
H 5.1530600494 0.3462635334 -2.5903875201
H 4.4941166085 0.7589252924 -1.2311441997
O 1.6309561024 -0.0702793252 -1.9318038338
H 2.5550448971 -0.0078829820 -2.2196294890
H 1.6112415850 -0.8171484168 -1.2967264870
O 1.5489045242 1.9319726872 0.0546817692
H 1.5025503802 1.3187766064 -0.7038079125
H 0.6602124619 2.3229987494 0.1199443773
O -1.2513746241 -1.9678974207 -0.1293923221
H -2.1466365119 -2.3720805377 -0.1209535602
H -1.2847258905 -1.2864436287 -0.8284593680
O -4.4987673537 1.4278325784 -0.0263847683
H -3.5915575815 1.8016013415 0.0422560596
H -5.0841403664 2.1869061522 -0.0405897118
O -1.2196787428 0.1514151408 -1.9889909273
H -0.2936272416 0.1494282733 -2.2731515959
H -1.3107030148 0.9257190111 -1.3986118411
O 4.3782074369 -0.2998577347 2.0190921762
H 4.4404093993 -1.0377615255 1.3849566758
H 3.4543148999 -0.3022800538 2.3079123790
O -1.3573598646 -0.1661254082 2.0480160366
H -1.4438502186 0.6893937508 1.5866313091
H -1.3110548233 -0.8201363880 1.3215079456
O -4.0683568404 -0.5529787067 -2.1097564376
H -3.1416159788 -0.3717450205 -2.3208161826
H -4.3166232682 0.1647837735 -1.5069722596
O -4.2473630961 -0.6953311116 1.9738485419
H -4.4667307512 0.0516911314 1.3975207663
H -3.3219868102 -0.5348939663 2.2186470145
O -3.9189896493 -2.6284909165 -0.1221050324
H -4.1353339554 -2.0852383400 0.6573845590
H -4.0930535957 -2.0357193867 -0.8744562979
O 1.4875810912 -0.0471725867 2.0536235667
H 1.5143431941 0.7148731185 1.4413864058
H 0.5539426078 -0.1024493761 2.3257823361
O 4.3967943585 1.7439797907 0.1275655277
H 3.4878331928 2.0797593498 0.1652166609
H 4.4564083021 1.1085110502 0.8723429428
O 1.5086539799 -2.0076378356 0.0584363169
H 0.5815371526 -2.2979007353 -0.0065286036
H 1.5194193661 -1.3942676861 0.8221210483
O 4.3539475194 -2.1873919841 -0.1276248611
H 3.4046484492 -2.3837076353 -0.1378174236
H 4.4797032535 -1.5499565726 -0.8457238440
46

Cl -1.6711075876 -2.3217256945 -0.1773783223
O -4.1273668894 1.8634820185 -0.4231557340
H -4.2937368263 0.9704084959 -0.0582625369
H -4.1500023343 1.7166732287 -1.3822220362
O -1.4329590330 1.8789367080 0.1303397905
H -2.3898000090 2.0379482244 -0.0244941648
H -1.3950420052 1.2041412244 0.8340329542
O -1.3210142875 0.1322229880 -2.1053511731
H -1.3219634423 0.7811427414 -1.3733427365
H -1.4610567402 -0.7177168259 -1.6373552141
O 1.4910044573 0.0211685031 -2.0230826377
H 1.5077884907 -0.7347360651 -1.4018373239
H 0.5652954811 0.0566037709 -2.3252244468
O 1.6090551498 0.1012519621 1.9418503014
H 2.5396855226 0.0465027101 2.2103921615
H 1.5616991310 0.8422322761 1.3024667794
O 4.3521499508 0.2869726459 -2.0172373621
H 3.4279463031 0.2659875423 -2.3062775974
H 4.3934905580 1.0361135791 -1.3958093290
O 1.3790002162 2.0094527428 -0.0692374125
H 0.4469980982 2.2784628727 -0.0250381648
H 1.4237622442 1.3816016569 -0.8207933756
O -4.4227670371 -0.7243028495 0.6151992987
H -4.2834185279 -0.5785767853 1.5642497607
H -3.6802222878 -1.2862735454 0.3370104246
O 1.4864999435 -1.9444020095 -0.0218033758
H 0.5792636982 -2.2943760073 -0.0957604598
H 1.4573092848 -1.3229709130 0.7289519818
O 4.2531115018 2.2152740318 0.1037271074
H 4.3852379422 1.5868360144 0.8286438236
H 3.3048508786 2.4115146306 0.1147588805
O 4.3481721842 -1.7340038133 -0.1044533762
H 4.4158431185 -1.1073814508 -0.8561893888
H 3.4427374405 -2.0773326838 -0.1479165379
O 4.4263990930 -0.0505413624 1.9614030976
H 4.4533810694 -0.7273753178 1.2330284904
H 5.1177810134 -0.2846057379 2.5815343435
O -3.8672312852 0.7827019993 -3.1051463628
H -2.9468216376 0.5398899496 -2.8827164607
H -4.3636895066 -0.0279265120 -2.9699527762
O -1.1850803538 -0.1939647794 2.0552499813
H -0.2426007392 -0.1872278056 2.2837071453
H -1.3097215387 -0.9422279807 1.4322395715
O -3.6609829223 0.2199526478 3.2567065372
H -2.7292327642 0.0816038848 3.0037807743
H -3.8163075612 1.1543787439 3.1010678745
46

Cl -0.1865969714 3.4555051214 -1.0605207463
O 0.9544876197 -1.0020453417 -0.6982581516
H 1.8111370274 -0.5324088542 -0.6148508818
H 0.9371148777 -1.6754830771 0.0112116722
O -0.3540358951 -0.6385290644 -3.1136296345
H 0.1347214840 -0.8357821449 -2.2919528591
H -1.0245075409 -1.3330616990 -3.1323060914
O -2.2802653148 1.4794505514 -2.6048866131
H -1.5765872657 0.8602787410 -2.8638420943
H -1.8014796981 2.2329039369 -2.2195855918
O -1.4669574787 -3.7467946181 0.5886344570
H -1.5811301419 -3.3969753730 -0.3091518431
H -0.5464456604 -3.5713585211 0.8328093269
O 3.1384529672 0.6655457036 -0.5024000735
H 2.7999466392 1.3122600646 0.1421399811
H 2.8461876914 1.0142388183 -1.3688466300
O -0.6132216962 0.8893075971 0.5138881813
H -0.0769597759 0.2582282867 -0.0160005974
H -0.6268686145 1.7333097955 -0.0026523092
O 2.1197380996 0.4580332001 3.5551322496
H 1.2111201781 0.1280964023 3.5997503918
H 2.0650924592 1.2941159652 3.0724861572
O 3.4685585586 -1.3215989098 1.8014808339
H 3.6192693278 -0.8117392336 0.9954868062
H 3.1184555034 -0.6761250917 2.4441709894
O -3.0172163276 -0.1806387287 -0.5106876035
H -2.2507388245 0.1320666014 0.0045503745
H -3.0090036042 0.4534556552 -1.2591992393
O -0.5707986791 -0.5966388910 2.8885334510
H -0.6394136914 0.0545702963 2.1698017551
H -1.4371055312 -1.0460312447 2.8594430269
O -2.3183572849 -2.4481868803 -1.8492783694
H -2.5952880892 -1.6379903205 -1.3560954244
H -3.1331336007 -2.8828177893 -2.1081774705
O -2.9496606298 -1.8900590488 2.0977079825
H -3.3372464732 -1.3260108696 1.4188415889
H -2.5000593598 -2.6013018959 1.5987218804
O 1.7244020804 2.3388479500 1.3595656973
H 1.5098695527 3.1280203474 0.8409282312
H 0.9222829133 1.8042360735 1.2299053568
O 1.7956924443 1.6201703452 -2.7741444076
H 1.2001715435 2.2655069894 -2.3453659634
H 1.2055244004 0.9864919947 -3.1973351733
O 0.9776566492 -2.5833973466 1.5768248618
H 1.9188225227 -2.3502843636 1.6973974559
H 0.4877646990 -1.9425727868 2.1281333682
46

Cl -1.8716980198 2.0553769892 -0.3092525860
O 4.6504433508 0.1281922320 -1.7802192481
H 5.3752606855 0.3941331108 -2.3469470982
H 4.5515114069 0.8353859719 -1.0885418072
O 1.8595958698 -0.2328858921 -1.9911026365
H 2.8064096753 -0.1283926587 -2.1747442304
H 1.7967331302 -0.9555430197 -1.3322748263
O 1.3634330754 1.8614320744 -0.1660269693
H 1.4515551368 1.2075939154 -0.8856397590
H 0.4368539395 2.1549772819 -0.1894297232
O -1.2196087005 -2.1949157201 -0.3621004840
H -2.1738186788 -2.4232373777 -0.3122728790
H -1.1545243060 -1.5630687633 -1.1035760247
O -4.5299179715 1.9785266927 1.4645186837
H -4.2938688158 2.5054110784 2.2303087005
H -3.7654461439 2.0671185239 0.8665423767
O -0.9401429211 -0.1954106817 -2.3525866901
H 0.0090423374 -0.1656644527 -2.5422285307
H -1.1202265256 0.5819326547 -1.7911785590
O 4.2442545668 -0.0512771653 2.1780571512
H 4.4002442056 -0.8183974673 1.5978797690
H 3.3002307990 -0.1003043779 2.3891432138
O -1.3746767641 -0.3406708454 1.7534234072
H -1.5515244400 0.4654123411 1.2315626132
H -1.3015637594 -1.0327287641 1.0642886866
O -3.8451798201 -0.0882464245 -2.0874884782
H -3.0416777882 -0.2958359993 -2.5800219587
H -3.5656788039 0.6490332417 -1.5259105718
O -4.2005395324 -0.8150542304 2.1829304735
H -4.4901028618 0.0801104981 1.9447651377
H -3.2367931295 -0.7216616408 2.2505312069
O -3.9731140749 -2.3062519999 -0.2372146932
H -4.1733989942 -1.8755747117 0.6145821770
H -4.0831517894 -1.5961777967 -0.8924690628
O 1.3863574947 -0.0167479971 1.9324228877
H 1.3966938506 0.7106936769 1.2797750682
H 0.4381275200 -0.1266076286 2.1367002574
O 4.2327000937 1.8843106509 0.1840835382
H 3.3036293068 2.1525168330 0.1280976711
H 4.2803102621 1.2949760259 0.9674570667
O 1.5767830806 -2.0851745399 0.0648213473
H 0.6760656702 -2.4339084792 -0.0364476776
H 1.5142967846 -1.4277830377 0.7889697110
O 4.4663506279 -2.0683612891 0.1554290090
H 3.5392797456 -2.3356498900 0.0715801023
H 4.6191531747 -1.4621485744 -0.5841249005
46

Cl -3.9673089928 -1.3873489354 0.9189201831
O -3.6688657915 2.7059870956 -0.2457539797
H -4.1341942956 2.4206187517 0.5588576494
H -3.8654990408 1.9962522975 -0.8871321915
O -1.0957135247 1.9209134838 0.1071276191
H -1.9919598077 2.3249355590 0.0195357943
H -1.1884098804 1.2115422770 0.7698725607
O -1.0381757072 0.2015481204 -2.0988869488
H -1.0304379750 0.8708886732 -1.3832786230
H -0.1367380894 0.1899180500 -2.4483807917
O 1.8281874134 -0.0427779247 -2.1117120677
H 1.7816897803 -0.8233266840 -1.5229325370
H 2.7587230682 0.0244960461 -2.3775953689
O 1.6923078463 -0.1871813970 1.8809574397
H 0.7961414469 -0.2365081000 2.2455591215
H 1.6808903650 0.5946958927 1.2916139120
O 4.6497990891 0.1511147964 -2.1219317376
H 4.6648624806 0.7926317163 -1.3630478805
H 5.3383210903 0.4248389886 -2.7289307175
O 1.6678731143 1.8517998300 -0.0396939846
H 0.7513301089 2.1755478466 0.0202856616
H 1.6783235377 1.2710831600 -0.8256346134
O 1.6306705738 -2.0755831579 -0.2056869151
H 0.7113093574 -2.3809351403 -0.2780835846
H 1.6497736783 -1.5055640275 0.5886735687
O 4.5403528277 1.7289320190 0.0300078090
H 4.6184497052 1.0631642586 0.7463045643
H 3.6276872096 2.0483901981 0.0888746969
O 4.5103433808 -2.2023356745 -0.3797590944
H 4.6383548654 -1.5383738803 -1.0731149333
H 3.5661896738 -2.4155868735 -0.4091432650
O 4.5794551067 -0.3918299139 1.8273971075
H 4.6334252529 -1.1065570803 1.1666063380
H 3.6597455949 -0.4105756434 2.1276938922
O -1.1747621994 -2.1097330578 -0.5070889449
H -1.2123272180 -1.3761714434 -1.1513052887
H -2.0844214126 -2.1991710776 -0.1708503565
O -3.9794789715 0.3699391965 -1.8142380925
H -3.0981201205 0.2119784834 -2.1749364842
H -4.0490358792 -0.2352813550 -1.0537360246
O -1.1189742731 -0.3840898980 1.7685690227
H -2.0661523787 -0.5675714667 1.9077053108
H -0.9399347865 -0.9816813476 1.0192723424
O -4.9002514345 1.4229164634 2.0027983273
H -4.7201244132 0.5191934680 1.6723053969
H -4.4538463694 1.4591967537 2.8505455018
46

Cl -4.3534992202 -1.8617475736 -0.1080268102
O -1.2779035099 -1.7458253748 -0.3593879811
H -2.2248886761 -2.0007227945 -0.2883579942
H -1.2627701932 -1.0302044148 -1.0193169005
O -1.1861758485 -0.0713429233 1.8983217737
H -2.1213260497 0.0298045741 2.1848143810
H -1.2287864651 -0.7293800732 1.1747784888
O 1.5993613703 -0.0685505506 2.0253509568
H 1.6751370092 0.7261192571 1.4638587598
H 0.6693668077 -0.0806886577 2.3089568102
O 1.8360230613 0.1564572709 -1.9376032788
H 2.7708260911 0.1611343293 -2.1961097230
H 1.7293766711 -0.6336127614 -1.3664268786
O 4.4610023943 -0.4777645491 2.0320391888
H 4.4834060358 -1.1819085756 1.3579321419
H 3.5358935094 -0.4429243895 2.3142621651
O 1.4854918200 -1.9026660282 -0.1076836481
H 0.5488973230 -2.1515546860 -0.2011443551
H 1.5207004125 -1.3536038434 0.7007778985
O -3.7835119062 2.4917912920 0.1776859541
H -3.8758679442 1.8557092802 -0.5834480559
H -4.4385572193 3.1764623017 0.0379223529
O 1.7895596121 2.0442177696 0.1365441789
H 0.8979116032 2.4210575514 0.2049369187
H 1.7629206940 1.4627750075 -0.6492609250
O 4.3357966343 -2.2368265667 -0.2113711646
H 4.5175536002 -1.5707368907 -0.8901675916
H 3.3794767625 -2.3856878199 -0.2602848649
O 4.6398620961 1.6738024692 0.2853039083
H 4.6412038654 0.9873294810 0.9868748863
H 3.7555166111 2.0661413213 0.3285312831
O 4.6675695683 0.1415429143 -1.9061195627
H 4.7202932615 0.7601324455 -1.1306954305
H 5.3940720487 0.3666024955 -2.4883271110
O -1.0029373039 2.1837728451 0.3137996099
H -1.0570924073 1.4259999496 0.9379285369
H -1.9037174243 2.5493154582 0.2948077787
O -3.8889311314 0.2902714129 2.1783825683
H -4.1380447923 -0.4444987975 1.5813871031
H -4.0002265637 1.0799477413 1.6305177784
O -1.0025788364 0.5835376989 -2.0054373500
H -0.0915935843 0.5032950885 -2.3205315948
H -0.9628984555 1.2094829769 -1.2559855015
O -3.9195097677 0.7077876198 -1.7867447085
H -3.0261793466 0.5686576597 -2.1286265813
H -4.1484388345 -0.1336803502 -1.3296809139
46

Cl -3.5327253213 -1.0224364037 1.5367765653
O -3.9041208712 1.4873898813 -2.0573410478
H -2.9379535656 1.3930690255 -2.1045118807
H -4.2232037069 0.5767755879 -1.9782408085
O -0.9834365064 2.1933751305 0.8997566349
H -1.9467861815 2.3785944027 0.8521763599
H -0.9161684581 1.5182945281 1.5944046930
O -1.1051541864 0.9444011111 -1.6415555268
H -1.0217295167 1.3843259072 -0.7722877037
H -1.2570961554 0.0081824638 -1.4166717561
O 1.6673288146 0.5879405149 -2.0661129447
H 1.6033022095 -0.3140589861 -1.6944204541
H 0.7373188150 0.8339727697 -2.2076168478
O 1.5830907750 -0.5315049308 1.6861585051
H 1.7059091113 0.3652027202 1.3135496345
H 0.7612254002 -0.4803802151 2.1984039194
O 4.5844521887 0.3620802525 -2.1161475350
H 3.6818774928 0.6021283487 -2.3624626621
H 4.7390126407 0.8348190119 -1.2754764096
O 1.8632008130 1.9353270562 0.3832627525
H 0.9998308088 2.3515714521 0.5163534516
H 1.8345552772 1.5562052020 -0.5192143652
O 1.2873819566 -1.8716622770 -0.7400772824
H 0.3497617626 -2.0708800648 -0.8726776343
H 1.3485984059 -1.5042858291 0.1648723905
O 4.7893694268 1.4996562785 0.4748873417
H 4.7524938431 0.6508797156 0.9583152693
H 3.9145918835 1.8880492544 0.6018102658
O 4.2168763556 -2.2060905483 -0.9703036661
H 4.3937390602 -1.3806764147 -1.4621573165
H 3.2621781294 -2.3343276041 -1.0417776233
O 4.4542893541 -1.0673017000 1.6140327060
H 4.4433748145 -1.5630513298 0.7723839818
H 3.5244441882 -1.0279041094 1.8759943125
O -1.6302763273 -1.7682860172 -0.8981188524
H -2.3888285285 -1.9737385070 -1.4584453522
H -2.0443703064 -1.6164427929 -0.0259460804
O -4.4929246295 -1.3159956178 -1.4126525496
H -5.3270397527 -1.7826635112 -1.4865284783
H -4.3331383644 -1.2159855985 -0.4503733924
O -0.9553454153 0.0353460046 2.8344163986
H -1.1458980238 0.2293662014 3.7540105724
H -1.7722075092 -0.3793505434 2.4758771638
O -3.7370263851 2.1701085988 0.7046534816
H -3.9090858261 2.0541021582 -0.2483722709
H -3.8095482133 1.2696051149 1.0599130631
46

Cl -1.9570240312 -2.5662733539 -0.8267207267
O -4.8135707252 1.3005426367 -0.3915651758
H -4.8812633679 0.3977564013 -0.0304719433
H -4.7138403599 1.1566182504 -1.3469904372
O -2.1686737464 1.4835098561 0.4371637569
H -3.1116367610 1.6168786188 0.2064163894
H -2.1568798513 0.6765196524 0.9899150189
O -1.5474863845 0.2848031934 -2.0491056911
H -1.7359118125 0.7609423591 -1.2147605198
H -1.6414290956 -0.6556964843 -1.7854540287
O 1.2055815255 0.3859535345 -1.5089214135
H 1.1930038842 -0.4821956177 -1.0546410281
H 0.3389139816 0.4227710231 -1.9541652010
O 0.7863762811 -0.4350933615 2.3377165980
H 1.6942304124 -0.4564565599 2.6784935688
H 0.7094498949 0.4215377767 1.8716618620
O 4.0524545962 0.4502957418 -1.6919356772
H 3.0989314629 0.5393513560 -1.8467544968
H 4.3240761421 1.2999416375 -1.3019388921
O 0.5992683238 1.8798879682 0.7624769086
H -0.3567814460 2.0405963972 0.6970371425
H 0.8438362968 1.4478704815 -0.0830182274
O -4.6282383509 -1.3602000246 0.6389791226
H -4.1086970770 -1.2348876718 1.4417577238
H -4.0035232845 -1.8221826860 0.0542185014
O 1.0738848045 -1.9752986757 -0.0209810431
H 0.2267913688 -2.3604444691 -0.3139247526
H 0.8882184415 -1.5594909230 0.8415280439
O 4.6784763703 2.9000789184 -0.3968901770
H 4.1511293959 2.8010324495 0.4262790032
H 4.3122596583 3.6674651525 -0.8394106523
O 3.9031761403 -1.4990953232 0.2618227020
H 4.0446413338 -0.8344759095 -0.4478487110
H 3.0469349248 -1.9042903712 0.0582175747
O 3.6033733893 -0.2549480778 2.5886548542
H 3.7702438867 -0.7292299311 1.7283769709
H 4.2703905546 -0.5619514474 3.2038255474
O -4.1451625794 0.4959995322 -3.0998985548
H -3.1952760469 0.4705381166 -2.8719260282
H -4.4030073357 -0.4287050980 -3.1229184037
O -1.9859092313 -0.9313377052 1.8674885662
H -1.1281532478 -0.9163638259 2.3143950696
H -1.8721851850 -1.5268501781 1.0991386400
O 3.1542920026 2.4987007950 1.8547632685
H 2.2276823461 2.4427331674 1.5705693548
H 3.3705193383 1.6084582605 2.1758885426
