46

Rb -1.2883488929 -0.3395605094 0.9508589245
O -4.8002255151 1.4143018195 0.2541973847
H -5.6121383095 1.8202392782 -0.0578620945
H -4.2708579577 1.1649598758 -0.5347403710
O -2.6535646428 2.3416998471 1.7842413311
H -3.5081363023 2.2093777910 1.3361008810
H -2.8351815318 2.8681747473 2.5658032307
O -0.5463880551 2.4823036934 -0.0606275078
H -1.2070622825 2.7714294035 0.5870672379
H 0.3264265561 2.7888956992 0.2239429738
O 2.2108264545 2.1767897035 0.2842019381
H 2.0393074173 1.6592822487 -0.5297554703
H 3.1734055612 2.3226521338 0.2864807510
O 1.2990017785 -1.5010477115 0.1013708328
H 2.0845471570 -2.0229121231 -0.1485587500
H 1.5741704312 -1.0385944525 0.9058489598
O 4.9601273556 1.7209247522 0.1729098479
H 4.9222209069 0.9655951872 0.7999246835
H 5.7785821658 2.1928069965 0.3409971626
O 1.5015786969 0.4119951470 2.1943259431
H 1.5761468185 0.7309393632 3.0965722559
H 1.7872069734 1.1452138344 1.5957169484
O -3.0089101630 -2.2579922138 -0.7197251998
H -3.6669635843 -2.1381401111 -0.0165370272
H -3.1240731826 -3.1445404030 -1.0680276383
O 1.5698295968 0.5278613442 -1.8498950309
H 0.7761432655 0.8004541067 -2.3342643765
H 1.3467821557 -0.2569554156 -1.3183649397
O 4.4529176616 -0.4767144852 1.6996149045
H 4.3795782727 -1.2379345036 1.0996314358
H 3.5794671877 -0.3728859810 2.0918464736
O 4.3599868702 -0.1467596984 -1.9843738258
H 4.7226248981 0.5605595320 -1.4299539485
H 3.4856141722 0.1667622943 -2.2539360898
O 3.9063876567 -2.2854993736 -0.4340793770
H 4.1484561632 -1.5826532781 -1.0867632716
H 4.3610543397 -3.0895181166 -0.6935551285
O -0.8928900893 1.7797132936 -2.6637707369
H -0.7884546352 2.2694629546 -1.8229218457
H -0.9151539407 2.4242089409 -3.3751184571
O -2.9910826553 0.4245032992 -1.4536890382
H -2.3821064811 0.8251247486 -2.0975068071
H -3.0505803685 -0.5258841984 -1.6291265708
O -4.2455086644 -1.0442272171 1.4694538720
H -4.7841321602 -1.3840233285 2.1874778980
H -4.6739019469 -0.2256810107 1.1619958920
46

Rb 4.0376279230 -0.3415549654 -0.2536741923
O -4.8610327185 2.2419938872 0.1104556920
H -5.5097246803 2.9462262903 0.0454924698
H -5.1025660840 1.5619341479 -0.5611802174
O -2.0998734618 1.9227046188 -0.1853480941
H -2.9755275727 2.3435010412 -0.1141101426
H -2.0678022226 1.2978398035 0.5693605650
O -2.3386771306 0.1080069129 -2.2239859902
H -2.2135978026 0.8587474114 -1.6023889878
H -2.1170863730 0.4155921354 -3.1050142129
O 1.5337958496 -0.3581906860 -1.8277115663
H 1.0371220690 -1.0679980527 -1.3657944640
H 1.3688075589 -0.4728722963 -2.7663137541
O 0.9149897420 -0.0895194337 1.7467990370
H 1.7470986332 -0.1673645608 2.2366177459
H 0.9312564451 0.7311023800 1.2194970880
O 0.6860301832 1.8782879772 -0.2272690859
H -0.2369320437 2.1863212323 -0.2564528855
H 0.7952815004 1.2541972606 -0.9618925662
O -4.9961708033 -1.9737408418 0.3359963228
H -5.0043103985 -1.2857748526 1.0459462291
H -5.6335854454 -2.6468818019 0.5833522182
O 0.4656369229 -2.1247769633 -0.0358536566
H -0.4755131568 -2.3659773333 -0.1082107537
H 0.5143661987 -1.4485901484 0.6719758969
O 3.3364362887 2.3075806840 0.3956029872
H 3.7153411792 3.1342550881 0.7001330312
H 2.4049967130 2.4934682161 0.1898910908
O 2.9493006780 -3.0245730470 0.6762836461
H 3.2038717593 -3.9496348087 0.6480211629
H 2.0090191619 -2.9863027409 0.4124214764
O 3.4713957406 -1.0351389694 2.5627864212
H 3.2973456678 -1.9394997745 2.2535250580
H 3.8111980922 -1.0997073859 3.4582301178
O -2.2893013415 -1.9564811531 -0.2798238422
H -2.3333358995 -1.4043294372 -1.0774578825
H -3.2098096904 -2.2180027958 -0.0862919791
O -5.2097310404 0.1635929042 -1.5833813238
H -4.3463048720 0.0527444261 -2.0035459331
H -5.3380240921 -0.6443788781 -1.0623934485
O -1.9485852893 -0.0442919967 1.7498561938
H -1.0651944254 -0.1047447447 2.1365888409
H -2.0295125143 -0.7900828172 1.1240619292
O -4.7958720380 0.0813255912 2.0613347439
H -3.8639915889 0.1074864261 2.3170384047
H -4.9436739646 0.9082579985 1.5770482907
