49

Na 1.3332979013 -1.6833931023 0.7534531093
O -1.2198243518 -2.2775609422 -1.4681793349
H -1.7148228267 -1.6955775514 -2.0629031782
H -0.2765564708 -2.1946826452 -1.6857485776
O -0.0122289431 -0.9713638312 2.8052773447
H 0.0598950509 -1.5787907734 3.5463183109
H -0.7947435072 -1.2656079893 2.2882873441
O 3.5243990617 1.7368198701 -0.4098564956
H 2.8660934654 2.2825086110 0.0599661213
H 4.3030262140 2.2835921455 -0.5403609924
O 0.2104297322 0.2717060480 0.0382308507
H -0.6775452358 0.4419985625 0.3940717912
H 0.7071766342 1.0729920006 0.2930280933
O -0.8858253978 3.5227944236 -0.8352813974
H -0.7933021017 2.8706902243 -1.5662563346
H -1.1390558811 4.3615663468 -1.2272785420
O -0.1994087822 1.8046624556 3.0647489757
H -0.0641991750 0.8361279779 3.1003858179
H -0.2387996998 2.1114843510 3.9736766045
O -0.5301689141 1.3421115640 -2.4353428216
H -0.2591486546 0.8099228208 -1.6634279354
H -1.3596662119 0.9312316267 -2.7265532269
O 3.3484262210 -0.6328649877 1.1148400169
H 3.5685557770 0.1623932090 0.5997063254
H 4.1229523156 -0.8351159683 1.6421532179
O -2.1230683522 1.7244795529 0.9604772882
H -1.8793356726 2.4802567497 0.3985812521
H -1.7164554501 1.8881577149 1.8258990640
O 1.2787840123 2.7534480713 0.8007224690
H 0.9373999551 2.6570192401 1.7041490825
H 0.6131126185 3.2547630717 0.2983043960
O 2.2703289847 0.3528619718 -2.6340756457
H 2.7333024985 0.9231651858 -2.0019697087
H 1.4975420289 0.8449979251 -2.9383615412
O -3.9815569052 -0.0718321053 0.0616390803
H -3.4751265224 0.6622023577 0.4614007414
H -4.9078181016 0.0918781063 0.2542703834
O 0.2423175273 -3.6900790839 1.3272784456
H 0.3557335856 -4.6022687682 1.0520876589
H -0.7112255412 -3.5295417267 1.3340333254
O 1.5958488839 -2.0317307465 -1.5891157240
H 2.0907308845 -2.7129067825 -2.0498292613
H 1.8679620583 -1.1734537503 -1.9968148390
O -1.9246709837 -1.8870092975 1.0840629307
H -1.6709601936 -1.9969368068 0.1336110553
H -2.8207626466 -1.5284712275 1.0501936895
O -2.9245936062 -0.2382113104 -2.5611218594
H -3.4244993378 -0.1650703930 -1.7262342130
H -3.5678439310 -0.3784007285 -3.2597464225
49

Na 1.2374553583 -1.6935622771 0.7431185613
O -0.8868457304 -2.6982458459 -1.9544235680
H -1.5320828801 -2.0068927835 -2.1683371912
H -0.0028553545 -2.3281801516 -2.1057124261
O 0.1698164172 -0.9045911670 2.9422012472
H -0.7413366445 -1.1368633674 2.6374487817
H 0.2947346295 -1.3646598368 3.7762140671
O 3.5904368091 1.7501082797 -0.3258388387
H 4.3796796588 2.2930893147 -0.3879066039
H 2.8978042705 2.2844603515 0.1058847417
O 0.0895016235 0.2262891268 0.0565135853
H -0.7785225840 0.4371266234 0.4363512723
H 0.6219678579 1.0142945929 0.2833029945
O -0.8970058942 3.5057992769 -0.8875035221
H -0.8297661988 2.8395654540 -1.6068286114
H -1.1363332883 4.3429577830 -1.2916491796
O -0.1417444647 1.8767545322 3.0471106484
H 0.0499993835 0.9188743807 3.1166276342
H -0.1638234806 2.2218131589 3.9427247148
O -0.5392389340 1.2845818488 -2.4415374354
H -0.3024326279 0.7593406698 -1.6536115149
H -1.3249467481 0.8356154974 -2.7861413657
O 3.2482136716 -0.6291306962 1.1816299750
H 3.5121166978 0.1492482969 0.6616150845
H 3.9613985258 -0.7885942654 1.8019024534
O -2.1562920367 1.8160275219 0.9959947506
H -1.8862546843 2.5474128135 0.4145716801
H -1.7219977548 1.9671840216 1.8495257341
O 1.2553096213 2.6910657044 0.7335585372
H 0.9197921734 2.6435351785 1.6443582188
H 0.6137328417 3.2147648443 0.2230622029
O 2.3313348257 0.4972015150 -2.5892322274
H 2.8000516333 1.0636691921 -1.9582034880
H 1.5320151753 0.9644714387 -2.8615985718
O -3.8380830692 -0.1318004833 0.1378116178
H -3.4208971994 0.6779623461 0.4938094396
H -4.7777354967 -0.0706489403 0.3266525970
O -0.3866853826 -3.4449336736 0.5257719394
H -0.6580636195 -3.2845673240 -0.4153542837
H -0.3655191176 -4.3955125845 0.6530713409
O 1.8055829647 -1.9355365387 -1.5938212524
H 2.4305773591 -2.5590887783 -1.9707751158
H 2.0380871085 -1.0556281735 -1.9777259423
O -2.1300126680 -1.7042137192 1.8608580912
H -2.8083128268 -1.2897359295 1.3074684973
H -1.7678583823 -2.4536669434 1.3619610480
O -2.7714327799 -0.5641293100 -2.4501870405
H -3.2556954068 -0.4153080405 -1.6171671971
H -3.4294230835 -0.7732245134 -3.1176310239
49

Na -0.7836577371 1.3819464729 0.2403929026
O 2.8820138750 -2.7177502581 -0.3661596000
H 2.1475508598 -2.9788535413 0.2121267175
H 3.4907091219 -3.4604253924 -0.3728386680
O -2.1872376219 -0.2616528770 1.4022965381
H -1.6969799017 -0.4363605344 2.2193616074
H -2.2203447147 -1.1155731420 0.9384742872
O 2.8941909839 2.1530649285 -1.1272156622
H 2.1809954461 1.9769106203 -1.7801251809
H 3.4826711660 2.7941920714 -1.5325421122
O 0.6582674506 -0.4653621932 -0.0655306040
H 1.5630215383 -0.2007432059 0.1906261123
H 0.5069274080 -1.2998372807 0.4205248080
O -4.1742325943 1.2886929922 0.0797417814
H -3.7360333853 0.7130437552 0.7273096019
H -5.1196450518 1.1639237578 0.1838462277
O 1.0788281438 2.5103993126 1.0674961114
H 1.7961302239 2.5933917648 0.4204560213
H 1.4769760909 2.1130740058 1.8523648909
O 2.1930554644 0.5476814817 2.9728078970
H 2.7899907462 0.7288164337 3.7030874411
H 2.7499547477 0.2752533870 2.2177398603
O -1.8985517755 0.9143487636 -1.8048980987
H -1.9767506850 -0.0033253826 -2.1108969687
H -2.7955446663 1.1930448847 -1.5786994456
O -2.1889614181 3.1701556014 0.5244596643
H -3.1258050389 2.9457637125 0.4547686828
H -2.1197534104 4.0736802130 0.8350571509
O -0.1030627552 -1.0543690217 3.3235722845
H 0.6881012035 -0.4824182725 3.2721938085
H -0.2445861366 -1.2279086555 4.2576177741
O 0.8613950233 1.4808642815 -2.8261052324
H 0.9679027644 0.5518212457 -3.0714067060
H -0.0874902620 1.5964708403 -2.6864079130
O -1.7358441352 -1.8580369761 -2.5873465532
H -0.7665535627 -1.8485515615 -2.7498511408
H -2.1551856804 -2.1670278464 -3.3940491201
O 0.4334352904 -2.9002602153 1.2070401393
H 0.2718673563 -2.5383473713 2.0934755439
H -0.4375781605 -3.1404961477 0.8523141735
O 3.3279704180 -0.0481547386 0.5326742286
H 3.5104754997 -0.9191242968 0.1455264226
H 3.4709602509 0.6412277152 -0.1394355321
O -2.1391142196 -2.7684570851 -0.0062774673
H -2.8619939570 -3.3938221273 0.0868504246
H -2.0677715704 -2.5628812230 -0.9603106406
O 0.9259353687 -1.4293686338 -2.5904483443
H 0.9060867848 -1.0988253060 -1.6638962037
H 1.6425906410 -2.0706453831 -2.6137542265
49

Na 1.3181204042 -1.7221088715 0.8530170038
O -1.2158088708 -2.3814172164 -1.4342572082
H -1.6649318381 -1.7067140382 -1.9663372767
H -0.2655225747 -2.2822621376 -1.6003337062
O -0.0630923883 -1.0136718539 2.8218875916
H -0.8345010061 -1.3007186028 2.2814698565
H -0.0543808929 -1.5871152512 3.5927452462
O 3.4661568834 1.6695237367 -0.3995092386
H 4.2468261938 2.2226253584 -0.4831835367
H 2.7797272121 2.2093585242 0.0500716734
O 0.2986953934 0.1808055580 -0.0083117226
H -0.6407708109 0.3757741085 0.1145526470
H 0.7232077337 1.0354051513 0.1706617975
O -0.8574107697 3.5896221501 -0.8187138524
H -0.7665668316 2.9745067629 -1.5915391086
H -1.1119581429 4.4487055915 -1.1620963007
O -0.1888342168 1.7632755308 2.9559593913
H -0.0734333477 0.7924726591 3.0105307319
H -0.2653881381 2.0841589528 3.8575267949
O -0.6016718473 1.7209227127 -2.6970278085
H 0.2284290627 1.2312765518 -2.6002759302
H -1.3165680093 1.0695219973 -2.6148971733
O 3.3610252179 -0.7019907663 1.1700066477
H 3.5460845424 0.1044424672 0.6604514009
H 4.1060491725 -0.8289193743 1.7595100286
O -2.1066711079 1.7173941343 0.8453361544
H -1.8672486516 2.4868826049 0.2991193765
H -1.6447118953 1.8371477053 1.6902550883
O 1.2868618722 2.7701728409 0.7408210630
H 0.9210790116 2.6033472543 1.6250745613
H 0.6089996611 3.2626556862 0.2408518846
O 2.1083664690 0.5010554861 -2.5733759088
H 2.6568503692 0.9642859707 -1.9121707680
H 2.5239730635 0.6503898598 -3.4265651236
O -3.9529463249 -0.1201325454 0.1399903284
H -3.4394846053 0.6377155615 0.4902809907
H -4.8796551220 0.0585782601 0.3150494034
O 0.2361118151 -3.7483020091 1.3744973726
H 0.3555884333 -4.6604676380 1.1028559790
H -0.7182440291 -3.5941624110 1.3966851008
O 1.6232136966 -2.0616812419 -1.5220205851
H 2.1732041789 -2.6967000559 -1.9862945605
H 1.8066918368 -1.1915516896 -1.9269340083
O -1.9533489791 -1.9859852642 1.1174235550
H -1.6873422236 -2.1121631472 0.1728836967
H -2.8293141705 -1.5800921197 1.0627037075
O -2.7562315784 -0.1810604023 -2.3971473072
H -3.3093275675 -0.1502939945 -1.5922958405
H -3.3585916048 -0.2422146561 -3.1426310872
49

Na -0.3761051117 1.9321008198 -0.7199937619
O 2.6422989243 -2.5497998753 -0.5651716776
H 1.8983993421 -2.8295395896 0.0021148193
H 3.2020665181 -3.3193446245 -0.6924495732
O -2.5327667225 -0.7548297976 1.3113845785
H -1.7908287180 -0.7248063934 1.9411819014
H -2.6218955823 -1.6839833830 1.0481244536
O 3.4580553513 2.0715509634 -1.1562211618
H 2.7394561550 1.9081723408 -1.7965947230
H 4.2002077717 2.4429979087 -1.6375172009
O 0.3860859015 -0.0469891261 0.1679773379
H 1.3463973064 0.0371991288 0.2921527604
H 0.2235255544 -0.9980467693 0.2373060690
O -4.2234632955 1.4308027310 0.8027197069
H -3.8687236673 0.6345278115 1.2294806286
H -5.1085633166 1.5688905140 1.1455462094
O 1.3042095693 2.8820048210 0.6127770987
H 2.1855396823 2.8968728065 0.2179190734
H 1.4048621773 2.4251527408 1.4590128726
O 1.8473657025 0.9133099269 2.8227555679
H 2.3566282813 1.1511922720 3.6015761929
H 2.4748547565 0.5108918826 2.1913986676
O -2.2813965940 0.4327589579 -1.2014833798
H -2.2624028470 0.0506204934 -0.2986835801
H -3.1347392951 0.8791286817 -1.2406485349
O -2.0344141246 3.1238051114 0.3366664186
H -2.8736269371 2.7137777816 0.6025600946
H -1.9164835751 3.9078836672 0.8752202232
O -0.2617290423 -0.9840581803 3.0517008678
H 0.4138360822 -0.2819181585 2.9724580874
H -0.3771079076 -1.1397103276 3.9921857673
O 1.1262507090 1.4250744778 -2.5669677967
H 1.1463013230 0.4344024044 -2.6190073872
H 1.0474943002 1.7291740775 -3.4744934455
O -1.6457623427 -1.9483424787 -2.3947483426
H -1.9448284266 -1.0488067049 -2.1429554582
H -2.0419859931 -2.1443146156 -3.2477676772
O 0.3391698448 -2.8181073600 0.9366513189
H 0.2110186820 -2.4287265636 1.8163572008
H -0.5120839193 -3.2098886675 0.6816104651
O 3.1949912435 -0.0459415338 0.6242689986
H 3.2876982544 -0.9277660626 0.2289780085
H 3.5150881202 0.6072693435 -0.0220308129
O -2.2600574533 -3.2893316487 -0.0238408099
H -2.7939184375 -4.0858532306 -0.0664460908
H -2.1322500424 -2.9739993342 -0.9394388397
O 1.1837355888 -1.2557137463 -2.7531346732
H 0.2920346422 -1.6132230128 -2.6297757747
H 1.7447555560 -1.7221827367 -2.1148047389
