49

K -0.0417222914 0.3952502952 2.3820764223
O 1.3687395235 -2.4331296413 -2.5223605025
H 1.7874343903 -2.7548005421 -3.3236081018
H 1.6791245884 -1.5160740097 -2.3817269734
O -0.8181643906 3.4528232479 -0.7568090601
H -0.6175304623 2.9056923474 -1.5497108485
H -0.8584606690 4.3630410883 -1.0610541931
O -1.5013679845 -3.5090480668 0.5434367531
H -0.5129613440 -3.5415384235 0.4676288563
H -1.8012767470 -4.4153386034 0.6474286809
O -0.9331459519 -0.0059954870 -0.0244957054
H -0.9887060638 -0.7137190321 -0.6900610562
H -1.7013466563 0.5644424747 -0.2012081438
O -2.8967645455 0.8829105795 2.5159927543
H -2.8506279636 -0.0904706519 2.5073057945
H -3.5552356425 1.1157514813 3.1748921118
O 0.9419740375 2.7914471179 1.2920426050
H 0.3306770520 3.0511854433 0.5705778511
H 1.1519736684 3.6086924107 1.7513054814
O -1.9291601708 -1.7351474765 2.6444260838
H -1.8449823824 -2.3344561900 1.8723259217
H -2.1550224813 -2.3046653092 3.3836749305
O -2.6575402551 0.3618828970 -2.8187284487
H -3.1680634427 0.6961390074 -2.0693855540
H -2.4416809886 -0.5614019852 -2.6130038296
O -3.1039784169 1.7468580539 -0.2405112932
H -2.5597058972 2.5451810862 -0.3019507830
H -3.2714169903 1.6015798438 0.7026652907
O -0.3788985377 1.7228261699 -2.8278079702
H -1.2322069743 1.2124038337 -2.8802595286
H -0.1889491279 2.0247194214 -3.7197583761
O 1.1382823385 -3.3593755609 0.2001060750
H 1.4866083743 -2.5412237650 0.5924013403
H 1.3307716342 -3.2668003645 -0.7456143012
O 4.8511034965 -0.0840948692 0.9786412889
H 5.3820153891 -0.0210377881 1.7773267012
H 5.3994286681 -0.5573626703 0.3460982216
O 1.7610081093 0.1665671831 -1.7542089642
H 0.9836534538 0.6570013083 -2.0769134218
H 2.4058833126 0.8505859188 -1.4858631291
O -1.3799625635 -2.0300289837 -1.9133462452
H -0.5212944870 -2.2962156686 -2.2816224796
H -1.6110339901 -2.6915809537 -1.2431936470
O 3.2577723316 2.0437185839 -0.3996720735
H 2.5709135124 2.3080687734 0.2314280089
H 3.9318658979 1.5887926549 0.1191737503
O 1.9784335941 -0.7404175712 0.9457687918
H 2.9357622751 -0.6183735283 1.0176676395
H 1.7435737359 -0.3982383767 0.0601657794
49

K 1.6737127084 1.9730014272 -0.5532965150
O 3.4485845796 -1.8450940667 0.4336684041
H 4.0657843577 -2.5689929145 0.5630689032
H 2.7562166584 -2.1736142430 -0.1917130953
O -2.4202872479 -2.2690982481 -1.6552713919
H -1.9611016904 -2.8272703753 -1.0046810624
H -1.7212448746 -1.7791226455 -2.1110826665
O 2.5953963305 1.8533828568 2.2007353395
H 3.4250159439 1.5783760576 1.7710391080
H 2.8340459675 2.3946391010 2.9566235370
O -0.1840589489 0.1909245428 0.3634477123
H 0.3713472409 -0.3098684127 0.9938768282
H -1.0731361683 0.2032761122 0.7680773554
O -3.6667317791 2.6590821784 2.0806973677
H -4.6154786987 2.7574189085 2.2017406164
H -3.2680358029 3.3345327010 2.6358247403
O -4.0784784204 -0.5012241383 -0.5828853965
H -3.5235141623 -1.2003424724 -1.0170011539
H -4.9951653588 -0.7330700450 -0.7456995482
O -0.9840294014 -2.2882505491 2.5695749976
H -1.6242212614 -1.5641593538 2.4990640260
H -0.1323469517 -1.8669453396 2.7488186563
O -2.9577675611 2.1019283690 -0.8020418561
H -3.1402605268 2.4364608218 0.0839311102
H -3.4047672242 1.2398521313 -0.8532139018
O -2.6162836325 -0.0630558458 1.7266806797
H -3.2593302729 -0.3145655014 1.0366169049
H -2.9460224964 0.7682114900 2.0922599867
O -0.8325738171 -3.6505999635 0.2638250500
H -0.9099656093 -3.1995772044 1.1409423250
H -0.9747051591 -4.5871845180 0.4193739610
O 4.2044804114 0.8063007369 0.2851579834
H 5.0935375643 0.9590089521 -0.0411501193
H 4.0533539210 -0.1599258695 0.2397004583
O -0.6092214111 2.3729752602 -2.1092057551
H -1.4631061009 2.3176157093 -1.6208447923
H -0.7642107973 2.9868061889 -2.8307442829
O 1.4343138680 -2.7269778381 -1.0805239685
H 0.6858076942 -3.1305563937 -0.6008766323
H 1.0417446647 -2.2301434153 -1.8047605516
O 1.5392666262 -0.8451353142 2.2566704031
H 2.2756342461 -1.3063865819 1.8204833155
H 1.8874472723 0.0180718888 2.5256797657
O -0.1988403878 -0.4910316792 -2.2859175594
H -0.2182683907 -0.3392880725 -1.3139695510
H -0.5084770723 0.3569050721 -2.6383699025
O 2.4371065847 0.4388937876 -2.6151953429
H 3.0753556496 0.1258214405 -3.2582529711
H 1.6170224060 -0.0587994753 -2.7614448571
49

K 0.1892054142 -1.2343371154 -2.1630128488
O 2.3186215911 -2.5651637842 -0.8255943111
H 2.8981755376 -3.2882209546 -1.0806918773
H 1.5280207427 -2.9697524531 -0.4137584000
O -3.0607138850 -1.8241599908 -0.2823327261
H -2.2359502762 -2.2765432484 -0.0663277883
H -2.8769079599 -1.2972712189 -1.0747872423
O 4.1084771753 1.2051033068 1.2074527779
H 4.1140595890 0.9350545014 0.2665227712
H 5.0027649028 1.4687255392 1.4369789573
O 0.2232119976 -0.1094766057 0.2968717521
H 1.0203965036 -0.3326331601 0.8175797165
H -0.4881013935 -0.0334660143 0.9630108290
O -0.5825728361 2.7629494244 1.9249499651
H 0.3438659319 2.8160103227 1.5891198610
H -0.7424289479 3.5858179377 2.3936997842
O -3.9792942447 0.2129468511 1.3022286796
H -3.7933008285 -0.6073903895 0.7982950052
H -4.8764805718 0.1446807224 1.6364629971
O 1.8616605889 2.9581142075 0.8156861367
H 2.6614454875 2.4881077532 1.0995631581
H 1.8025959341 2.8078104301 -0.1355113397
O 0.0061527262 -2.3127597847 2.5838094728
H -0.5706162691 -1.5575100833 2.7839387740
H 0.9036786241 -1.9718561018 2.6960373922
O -2.3337078467 2.0385614651 -0.1520847424
H -1.7174087617 2.3285348476 0.5487941428
H -3.0889277998 1.6409470636 0.3114399606
O -1.4556296527 0.1308971932 2.4974594083
H -2.4093418443 0.1740871867 2.3121657924
H -1.1649742120 1.0459778777 2.6385670604
O -0.2437856796 -3.1959753382 0.0925171531
H -0.1789738431 -2.8572687485 1.0305668871
H -0.4947769802 -4.1213029489 0.1698269154
O 3.5018104181 0.2681883134 -1.3100135094
H 2.7527056294 0.7987384299 -1.6247061542
H 3.1656359373 -0.6269746677 -1.1871003699
O -1.2511438629 3.0753311475 -2.5453479588
H -1.8093103650 3.0693094913 -1.7532485866
H -1.2881394366 3.9658980863 -2.9018733283
O 2.4579888027 -0.9822773005 1.7307555415
H 2.8402741885 -1.5940188250 1.0910065160
H 3.1078802056 -0.2635675801 1.8255869627
O -2.1241693495 0.1210800141 -2.1405652029
H -2.0995765027 0.7980919183 -1.4311037579
H -2.4899846686 0.5790383147 -2.9027180049
O 0.9745196538 1.5462237624 -1.7185322930
H 0.3149700093 2.1417346327 -2.1189826215
H 0.5712585344 1.1933441495 -0.9010452987
49

K 2.7033506683 -0.3108532643 1.4782133101
O -0.8600747289 -3.6306636071 -0.6348240537
H -1.0003794800 -4.5603222785 -0.8289608585
H -1.7505322170 -3.2028117462 -0.6852493504
O -3.5797215962 1.1330465142 1.0421966233
H -3.9908137527 0.3373255298 1.4013442673
H -3.3323129482 0.9135531989 0.1273430174
O 3.2205402924 -2.5373695202 0.0189926935
H 2.6704444245 -2.5597509408 -0.8049982756
H 3.9077658815 -3.1975833035 -0.0912987716
O -0.0079296664 -0.1242769088 0.0905881623
H 0.1322829673 -0.9810372359 0.5419441652
H 0.1299256595 0.5816706735 0.7486151763
O 2.2530216415 3.4490271430 0.2766224688
H 2.7868354488 2.8056556722 -0.2258953960
H 2.7678426180 4.2546284488 0.3605555864
O -1.6612249016 2.7577650047 1.9426702072
H -2.3996295351 2.1392921512 1.7227660865
H -2.0490023823 3.4684608948 2.4581805766
O 3.3277010402 1.1639329485 -0.8680526908
H 4.1708141334 1.0885780860 -1.3218521305
H 2.6381009991 0.9137937058 -1.5305882271
O -0.4919034189 3.2956651431 -0.6726029644
H 0.4185062707 3.5052653926 -0.4254128143
H -0.9893397842 3.2276641939 0.1570018848
O 0.9018834253 1.6964621672 2.0101246363
H 0.0292662937 2.0423053088 2.2747536790
H 1.3415413918 2.4416847474 1.5660680844
O -4.8379502058 -1.5008551828 1.5794221141
H -4.7845830299 -1.9656028205 2.4189118679
H -5.7745566634 -1.4683286407 1.3637410368
O 1.4717723239 -2.5415296159 -1.9864527453
H 1.3241466235 -1.6911309634 -2.4228441342
H 0.6047700489 -2.8721165178 -1.6994903603
O -0.9371146735 2.0269871734 -3.0231272748
H -0.8343245336 2.6160133447 -2.2450578261
H -1.1928361529 2.5783232109 -3.7656815032
O -3.2080560290 -2.3591184213 -0.7615972786
H -3.7475556827 -2.2082490428 0.0249589418
H -3.0742790061 -1.4825554703 -1.1586095149
O 0.7288547157 -2.4898690625 1.3421926704
H 0.0583897995 -3.0323075870 0.8862280957
H 1.5661385207 -2.8276700624 0.9864733148
O -2.4083574224 0.2535819087 -1.3486803781
H -1.5752900504 0.1230338376 -0.8629670073
H -2.1673777323 0.8023097841 -2.1114120924
O 1.2213326175 0.3346724509 -2.3260103948
H 0.6464040910 0.9208817313 -2.8470523897
H 0.7216705559 0.1842960886 -1.5005056384
