16

Br 1.6755974971 -0.2997991739 0.1061462145
O -1.0109353141 -1.6655049451 -1.2150415125
H -0.6865411740 -2.4504351699 -1.6592634122
H -0.2355252403 -1.3287983709 -0.7184239340
O -3.6315829317 -0.9778616725 0.0965670778
H -3.3546762022 -0.0851055048 0.3596092163
H -2.8285168754 -1.3519279050 -0.2853820601
O -0.2093805171 1.0673824373 2.4357599323
H 0.2888661064 0.4930743837 1.8202456431
H 0.3023266289 1.8792319405 2.4240239201
O -0.7560390274 1.2538258721 -1.7263918031
H -1.0810139816 0.3602749804 -1.8970709967
H 0.0962964677 1.0795779305 -1.2929908006
O -2.4301192274 1.6251627617 0.6425919248
H -1.9104186496 1.6326931740 -0.1779732633
H -1.7708217448 1.4416229829 1.3311076249
16

Br -1.4220205938 -0.0166322187 -0.0081074125
O 2.7213890713 1.0299215688 -0.3767643530
H 2.0423215862 1.7230074253 -0.3615349471
H 2.3554096786 0.3581007566 -0.9809432388
O 0.3952376869 2.7481915674 0.0187325046
H -0.2231550852 2.0057761367 -0.1349548509
H 0.4279434021 2.8015526654 0.9770203727
O 1.4572401984 -0.2351960662 1.8763342778
H 0.5564744976 -0.0725871677 1.5516975196
H 2.0168323779 0.1906767143 1.2016018291
O 1.3003421715 -0.9636423612 -1.8587216603
H 1.3350165230 -1.6905287495 -1.2153087493
H 0.4380340073 -0.5670384246 -1.6533427965
O 0.8133344661 -2.6718013096 0.4543686782
H -0.0694912862 -2.2969557780 0.3217300006
H 1.2124923841 -2.0222787941 1.0582664966
16

Br -1.6205015668 -0.5100515430 -0.3638932621
O 0.0914648044 1.8108856039 1.6182941008
H 0.8579175935 1.9798677308 1.0446537348
H -0.5506093942 1.3744777036 1.0355615554
O 2.4180497155 1.9244668643 -0.1310701855
H 2.7979288489 1.0936535228 0.2052649506
H 1.9676343760 1.6170000673 -0.9287717652
O 2.9372733174 -0.8541478104 0.3599386944
H 2.4663800845 -0.8781843758 -0.4846121089
H 2.2261120357 -0.9937432726 1.0166278288
O 1.1794529240 -0.0856443160 -1.8832077198
H 0.3226920120 -0.2060401518 -1.4067732334
H 0.9859364312 -0.3442365708 -2.7852486961
O 0.7006936317 -0.9710836280 2.0714946980
H 0.5956795992 -0.0124971855 2.1959693469
H -0.0040568275 -1.1532251197 1.4265927556
16

Br -0.7509836157 0.6999374732 -1.4372413397
O 2.3512074238 0.2651554748 -0.2082998842
H 1.5926941764 0.7158984323 -0.6215975124
H 2.0679218305 -0.6640944155 -0.2732777276
O -0.7952761037 0.5808693520 1.9414043526
H 0.1303813520 0.7833521243 2.1557105218
H -0.8645963866 0.7389761642 0.9806332830
O 2.0430365534 0.6128979986 2.4923890713
H 2.0368738911 -0.2967232362 2.7994880033
H 2.2308872659 0.5390544813 1.5280428931
O -0.7436375942 -2.1478199264 2.0697643935
H -1.5786495648 -2.4452447209 1.7033446558
H -0.8123876332 -1.1638400849 2.0658699933
O 0.7952068631 -2.1309003794 -0.4057783069
H 0.2393485941 -1.4716879507 -0.8595803076
H 0.3682959178 -2.2255421348 0.4605110210
16

Br 0.8087336015 -0.9717844259 0.7286431186
O -2.3175922867 0.4873730088 1.5276750904
H -1.4523237528 0.0559955436 1.5967856224
H -2.1295565072 1.2830301101 1.0048010567
O -1.8944982243 -0.6193848467 -1.1946724786
H -2.4808662833 -0.4475015042 -0.4448201760
H -1.0772121465 -0.8863146718 -0.7318485231
O 1.1765833864 2.1945090648 -0.4829829483
H 1.1817566677 1.4402748665 0.1304550273
H 1.2337046822 1.7476079345 -1.3407008118
O 0.9019211396 0.0653724082 -2.4796289607
H -0.0554964020 0.0148193407 -2.5699357944
H 1.0630176150 -0.3920732484 -1.6343434679
O -1.6651301847 2.3272869427 -0.6577168649
H -1.7365775453 1.4607069095 -1.0827393071
H -0.7032869537 2.4438703226 -0.5538400438
16

Br 0.8589548848 -1.0927169734 1.3923802698
O -1.8979310414 0.2990246436 -3.2423140996
H -1.0677234762 -0.1068502099 -2.9374611752
H -2.5586516814 -0.0467076688 -2.6357187156
O 0.4912180717 -0.5854652148 -1.9185625641
H 0.7164448195 -1.1264412838 -1.1411067193
H 0.8332591697 0.2894290557 -1.6468491422
O -1.8955421256 -0.1773467116 -0.1044906762
H -1.2269397875 -0.3978490161 -0.7703443908
H -1.3923028181 -0.3930086317 0.7007770334
O -1.6421442714 2.4563795891 -1.0708162447
H -1.6804615617 2.1230876237 -1.9764245918
H -1.8624336340 1.6603175328 -0.5528899841
O 1.1582368844 1.7823959029 -0.5601886899
H 1.1345898807 1.1846101359 0.2063195889
H 0.2683891123 2.1669749624 -0.6164662152
16

Br 0.7754364925 0.3955612454 1.3210091766
O -1.7996923296 0.0854379556 -2.1355370550
H -2.1742013317 -0.1931560952 -1.2800346272
H -1.3733595208 0.9307782206 -1.9229936257
O -0.5101519434 -2.7810109394 0.7635081299
H -0.1833993396 -2.5934740671 -0.1340264589
H -0.0591835533 -2.0955467621 1.2790491876
O -2.4313819776 -0.6385206788 0.5675706405
H -1.6994282763 -0.0909098721 0.8949439876
H -2.0385678033 -1.5259314412 0.6251109932
O -0.4330013723 2.4091503644 -1.0008272569
H -1.0633967073 2.8592709842 -0.4346533070
H 0.0710934497 1.8525434271 -0.3725501429
O 0.5486451974 -1.4961914816 -1.5835796907
H -0.2337707573 -1.0247066042 -1.9206530173
H 0.8776723355 -0.9056689574 -0.8877895281
16

Br -1.7467434881 -0.0481689344 0.4315104823
O 1.4390500479 0.8304773178 1.3242517878
H 1.6766022328 0.3573416051 0.5126238044
H 0.4930816059 0.6292168922 1.4134951526
O 0.3485279088 1.9222606339 -1.3140106920
H 0.7587403405 2.1604516098 -0.4739459651
H -0.4296043521 1.4147696480 -1.0163449482
O 2.1292862077 -0.3355872171 -1.3317559609
H 1.5744436763 0.4247999725 -1.5774635058
H 1.5093644480 -1.0853511517 -1.2654187792
O 0.2137124386 -2.3461954213 -0.7842597761
H -0.4798141877 -1.7030881769 -0.5184716945
H 0.5031972594 -2.7117408803 0.0549601911
O 4.2452930979 -0.4248044581 0.7019250705
H 3.6590334773 -0.0461795862 1.3642464459
H 3.6949126285 -0.4362523046 -0.0950350252
16

Br 1.8662705705 -0.0259499816 -0.0893650076
O -0.7385255905 -1.1021512906 1.7818654285
H -0.9188992722 -1.6657074379 1.0177026405
H 0.1219506499 -0.7175744160 1.5351643155
O -1.0509397969 -1.3503155374 -1.2012707251
H -1.4952479296 -0.5614010840 -0.8600664438
H -0.1116734008 -1.1056413681 -1.1481008524
O -4.1007322512 -0.6017093562 -1.5696470793
H -3.3697231701 -1.1436367773 -1.8805709785
H -3.6928535791 -0.0479356957 -0.8871961402
O -2.4237959609 0.7688859728 0.4144638266
H -1.9636315490 0.2131595898 1.0684253716
H -1.7818140240 1.4759218218 0.2216789189
O -0.2133940746 2.4912145148 0.0353708073
H 0.4280604110 1.7687635189 -0.1432943301
H 0.0540397765 2.8108791252 0.8995840812
16

Br -1.5079802704 -0.0679189392 0.2403093133
O 0.8627625566 0.1090172962 2.5393886085
H 0.6662454910 -0.7478783727 2.9240811643
H 0.1440658328 0.2222736243 1.8851546973
O -0.0000271450 2.2324797237 -1.5568890222
H -0.4921566929 2.0694825802 -2.3642473958
H -0.4341994670 1.6352419894 -0.9125258312
O 2.3652975088 0.6014999549 -1.8775514113
H 1.6546350166 1.2519727911 -1.7529899154
H 1.8951765673 -0.2489498051 -1.8890855036
O 1.0736736398 -1.8851754461 -1.1299813979
H 0.2394308639 -1.5018706064 -0.8112071994
H 1.6942363313 -1.7234059892 -0.4016120379
O 2.9867192908 -0.6126230497 0.6928046744
H 2.9375356993 -0.0135549774 -0.0699294545
H 2.3415555671 -0.2659929965 1.3305287323
