16

Cs 0.8458624478 -0.2984107601 0.0759547896
O -2.8758794646 1.3879695167 -0.1441519425
H -2.7054319167 0.7596004498 -0.8703450152
H -3.7604091047 1.7397767761 -0.2706680562
O -0.2498032667 2.4707273488 -0.0446536225
H -0.0153031411 3.3999933015 -0.0852003555
H -1.2162144686 2.4286322806 -0.0923745129
O -1.5457378779 -2.4432919265 0.2514924417
H -1.8401078534 -3.3427560312 0.4127161318
H -1.8569412091 -1.8977950541 0.9946078092
O -1.7915254798 -0.5902363271 -1.7632043874
H -1.9123515555 -1.4271519120 -1.2801646961
H -1.9760977615 -0.7672916482 -2.6889417803
O -1.8043029796 -0.2216239821 1.8535396145
H -2.3388976006 0.4210790492 1.3519497007
H -2.0004434326 -0.0812065314 2.7828283766
16

Cs 1.3484362527 0.3489148697 0.2154518981
O -0.7237217152 1.1800762040 -1.8353651712
H -1.6310267609 0.8506691421 -1.7888762539
H -0.6867426966 1.7267363987 -2.6231619588
O -3.4401438099 -0.0493075026 -1.5794639441
H -3.6352651112 -0.6242375593 -2.3261462505
H -4.1651906388 0.5824844578 -1.5451204499
O -2.7154414476 -1.3251567979 0.8877867656
H -3.0851752782 -0.9661048832 0.0646800106
H -3.4280046744 -1.7909271005 1.3326862599
O -1.0559710255 0.7325729350 1.9450745458
H -1.3634732376 1.2748621848 2.6738925391
H -1.7501573558 0.0767345912 1.7798401383
O -0.0498125437 -2.3086241802 0.4294393225
H -0.9919263171 -2.1962180762 0.6254720456
H 0.1119119008 -3.2538602974 0.4172960567
16

Cs 1.0055160139 0.7675264101 0.1468655072
O -0.1247282468 0.9162636100 -2.6752430554
H -0.8637046259 0.3280516929 -2.8863770143
H 0.0461902890 1.4168544014 -3.4756551979
O -2.3192147706 -1.0003517912 -2.9422842130
H -2.1544890880 -1.8077733936 -3.4378285691
H -3.1930202372 -0.7040353276 -3.2123769601
O -2.4764716558 -1.7482503387 2.4236190234
H -3.3586406083 -1.5194699341 2.7298332498
H -2.3290868234 -2.6541405858 2.7103894353
O -0.2927230881 0.1305719310 2.7979509021
H -0.1622018688 0.3893920151 3.7125238991
H -1.0396936535 -0.4853646554 2.8026094516
O -1.3700533674 -0.9896388386 -0.1821912709
H -1.9208951430 -1.3208969367 0.5376275831
H -1.8681643385 -1.0999445448 -1.0016146216
16

Cs 0.0022730519 0.0366947514 0.1029742173
O -0.7048857394 1.0873842771 -2.6317875010
H -1.1452854668 1.8676365707 -2.9752728423
H -0.4430246150 0.5705556797 -3.4070963031
O 0.2558372541 -0.7728788253 -4.6496775984
H 0.9195222897 -0.4799733125 -5.2810642469
H -0.3961238157 -1.2580763684 -5.1639612010
O -1.9918180642 0.5863081760 4.6895611514
H -2.3688016361 1.3861772935 5.0637562008
H -2.1950561527 -0.1138421335 5.3144861704
O 0.2867566116 0.5578916025 3.0571466278
H 1.0575500937 0.7282299267 3.6022725341
H -0.4698258625 0.5831232040 3.6683796604
O 1.0735624974 -1.8153786310 -2.0567259670
H 1.5738125712 -2.6339261234 -2.0740419614
H 0.8869694805 -1.6008444609 -2.9814643272
16

Cs 0.8274134501 0.3743275334 -0.4224725560
O 2.5991639391 2.7283748896 -1.4946053885
H 2.7227980668 3.5897167329 -1.0875170014
H 3.1097034672 2.7684041752 -2.3072917783
O -2.7096452588 -2.8240516146 -2.2857897278
H -2.5684304679 -3.7129111218 -2.6196004680
H -3.5831338567 -2.5672385069 -2.5897978296
O -1.8671130478 -2.0206370238 2.7262019578
H -2.7551348108 -1.8752169847 3.0647190159
H -1.5592536827 -2.8292983837 3.1453569408
O -0.0369693971 0.2212990847 2.4588824515
H 0.1624870259 0.6495335647 3.2937769981
H -0.6567448060 -0.4925002351 2.6703747677
O -1.3000939058 -1.6336967379 -0.1504633476
H -1.8267575560 -2.0874878404 -0.8275665043
H -1.6406410755 -1.9200471683 0.7049478886
16

Cs 0.1024506244 -0.1453086493 0.1767162382
O -1.0203012466 -0.0517969940 -2.6224068978
H -0.7324210445 0.7200091560 -3.1390025826
H -1.6713818973 -0.5046384599 -3.1613868456
O 0.0244395664 2.2806946023 -3.7541872885
H 0.6942656255 2.2877337851 -4.4425728410
H -0.5062006359 3.0668004567 -3.9063075839
O -2.3331026285 -0.1389694734 4.1537236517
H -3.1346138477 0.3636924791 4.3191316269
H -2.2969648864 -0.8036427162 4.8461351512
O -0.0390863043 0.9465555459 2.9808053059
H 0.4458591466 1.5490345540 3.5479863001
H -0.8061782749 0.6514435977 3.5005351192
O 2.3861417125 -2.0522915560 -0.6304736074
H 2.4462820448 -2.4879509870 -1.4844730391
H 3.1580919210 -2.3533127611 -0.1444794910
