16

Mg -0.0000739881 0.0005907145 0.0232945170
O -0.0004616880 0.0044848987 -2.0119929564
H -0.6763298570 -0.3678488272 -2.5917034339
H 0.6753678645 0.3777692485 -2.5911310473
O 2.0720803481 -0.1095104537 0.0922749869
H 2.6253234333 -0.7093835741 -0.4234769449
H 2.6664860204 0.3386557107 0.7060664042
O -0.1287085587 -1.8378913157 0.9115547224
H -0.7880920094 -2.5307667139 0.7848551770
H 0.5493266889 -2.2157453586 1.4852882324
O 0.1291283545 1.8321740636 0.9253523372
H 0.7889083884 2.5255736321 0.8036602261
H -0.5495658019 2.2067260968 1.5004697928
O -2.0720624234 0.1119442862 0.0936350112
H -2.6672172068 -0.3437081372 0.7011411334
H -2.6247889164 0.7168977217 -0.4167173312
