16

Na -0.7128315033 -0.0004904691 0.0001248923
O 3.3582954182 0.0011096180 0.0001730229
H 3.9402885823 -0.7545073244 0.1254643785
H 3.9392775124 0.7574950697 -0.1251742458
O 0.9456279934 0.2840943751 1.5544490281
H 1.8609042303 0.2225442263 1.2450952905
H 0.9822349340 0.3313697141 2.5115281782
O -2.1933230725 1.7708222139 0.0199271794
H -2.0447161778 2.6281878634 0.4264333371
H -3.0206236539 1.8554787269 -0.4602632996
O -2.1928333768 -1.7720200473 -0.0195053400
H -3.0233855898 -1.8537603675 0.4555470767
H -2.0422106932 -2.6313864518 -0.4210070698
O 0.9458604391 -0.2847461291 -1.5539815619
H 0.9824092243 -0.3329120840 -2.5110184277
H 1.8611160605 -0.2222379493 -1.2447677865
16

Na -0.0468348432 -0.0321381345 -0.0296336175
O 0.4095278058 1.1263288484 -2.0149512667
H 0.7884212469 2.0087960323 -2.0344470901
H 0.4003729690 0.8336483340 -2.9293944764
O 2.1068123122 0.1475402034 0.9366262402
H 2.9282668670 -0.0915873858 0.5001552303
H 2.3684968383 0.5636173219 1.7614208862
O -2.3671747371 -0.2202441193 -0.6139101923
H -2.7479488615 0.2780865672 -1.3416825566
H -2.9697576317 -0.9513931778 -0.4562722364
O 0.2932973961 -2.3364094233 0.0333745460
H 0.8089903454 -2.7165695178 0.7491542106
H 0.0569736724 -3.0742483173 -0.5334142109
O -1.0518693139 1.2667648281 1.6150210984
H -0.9029123429 1.8100060591 2.3915499398
H -2.0028582470 1.2534627723 1.4756676839
16

Na 0.0135515444 0.0292496331 -0.1562911832
O -0.3938770760 -2.3210484528 -0.4556692124
H -0.4116494367 -2.9093718965 0.3038786593
H -0.1801219089 -2.8806294874 -1.2068052786
O 0.4047192486 2.3684688941 -0.4746187167
H 0.4528409029 2.9850789961 0.2606466253
H 0.1779998444 2.9030347971 -1.2400277509
O -2.2467342044 0.0095682498 -0.6587694194
H -2.5649982008 -0.8838177215 -0.8139698672
H -2.9844265097 0.5944083449 -0.8443572267
O 2.2572169355 -0.0067793278 -0.7213000341
H 2.6273883345 0.8643648754 -0.8864398992
H 2.9621397957 -0.6345588646 -0.8939973077
O -0.0246939806 -0.0434881810 2.1756430633
H 0.7177591904 -0.1154645127 2.7804122785
H -0.8040627194 0.0400225510 2.7305737141
16

Na -1.7710855663 -0.0021743517 -0.0313925161
O 4.1449082342 -0.0034473662 0.9116940551
H 4.6588440583 0.7649163324 1.1709675670
H 4.6621051781 -0.7710020995 1.1668295797
O -4.0305093252 -0.0166596815 0.3152584070
H -4.6589766401 -0.6798690628 0.0180195589
H -4.5570084985 0.6430662929 0.7742808818
O 2.0469889094 -0.0005820874 -0.8381533788
H 2.8106665160 -0.0009878354 -0.2245854764
H 2.4188799023 -0.0023079390 -1.7240912290
O -0.2028321106 1.5777136802 -0.3310816455
H -0.1367374949 2.5335960293 -0.3529095773
H 0.6860348153 1.2254635104 -0.5153332639
O -0.2029673820 -1.5808099695 -0.3361566753
H -0.1263473543 -2.5358361259 -0.3117184605
H 0.6855913806 -1.2272790557 -0.5194699751
16

Na -1.2317638763 -0.0814560443 0.1361154005
O 2.5012724985 1.6760469135 2.1083228428
H 3.0227513914 1.2946392200 2.8182970101
H 2.7956721721 2.5856599420 2.0224307267
O -3.0656626248 0.4895012068 1.3863480843
H -3.1025704104 0.6016102949 2.3397209197
H -3.9573142324 0.6675488921 1.0762068704
O 1.8529425407 -1.2105172168 -2.1173837461
H 2.3872269180 -2.0046092553 -2.0223683924
H 2.2176608966 -0.7428130833 -2.8745815292
O 0.9579208154 0.2862768604 0.2713540141
H 1.5345933376 0.7671477900 0.8901112019
H 1.5248345153 -0.1000701091 -0.4064102385
O -0.9616120651 -1.3255930926 -1.7236773261
H -1.4942718302 -1.8477206313 -2.3260729355
H -0.0413690128 -1.4023964931 -2.0219946330
