19

Br -1.5420627628 0.3523700737 0.8074575195
O 3.6130779046 -2.5288966162 0.0375337473
H 3.1933271238 -2.3460743972 -0.8104785117
H 3.1304759316 -1.9435381553 0.6348086324
O 1.7268041237 -0.4257844355 1.0512444934
H 1.8541272124 0.5391007950 1.0351097035
H 0.7638775973 -0.4983326107 1.1696273374
O 1.2779938291 2.3903573248 0.7827601045
H 0.4099498112 2.1157226897 1.1138265637
H 1.1477784190 2.3384099945 -0.1785729054
O 1.5939307029 -1.0118913522 -1.7320894998
H 1.6651456116 -0.7982644995 -0.7831063909
H 0.7162584936 -1.4232178315 -1.8100424701
O 0.2836168210 1.6038206200 -1.8415723617
H 0.8100238655 0.7987870334 -1.9777241521
H -0.4187396955 1.3156105496 -1.2351649249
O -1.1893930835 -1.7291115677 -1.7545088870
H -1.3512329815 -1.2764324088 -0.9030854602
H -1.5420522096 -1.1095153253 -2.3981125872
19

Br -1.4681068006 -0.0276214533 0.0836030818
O 2.8911283995 0.0725603441 0.7480483233
H 2.3643522670 0.8248689564 1.0703426839
H 2.4029660520 -0.7056099511 1.0694792800
O 0.1686542449 2.6964622248 -1.3667979354
H 0.7511757316 2.0100901822 -1.7252626288
H -0.6027388923 2.1817551088 -1.0856250007
O 0.9500696061 2.1107024865 1.3850390421
H 0.8465538478 2.5394981763 0.5203362137
H 0.2024487009 1.4938397204 1.3879205834
O 1.4021709889 0.0278321470 -1.6548831747
H 0.5642655012 0.0107277480 -1.1552482788
H 2.0735162538 0.0466157665 -0.9447161613
O 1.0508856379 -2.0595675945 1.3793545536
H 0.2750200665 -1.4786663567 1.3794466308
H 0.9688607262 -2.4958875977 0.5162012286
O 0.2954384211 -2.6901520258 -1.3700683638
H 0.8430052978 -1.9737796867 -1.7255021833
H -0.5036648178 -2.2177544684 -1.0932128015
19

Br 0.1897030877 -1.3832775788 -1.5570901845
O -2.1952556163 1.7302487719 1.0524361002
H -1.5109439095 2.1982808310 1.5542896454
H -1.8838462981 1.8045623733 0.1307354063
O 0.9280220335 0.0644694416 2.7301890645
H 1.4250972469 -0.6392455935 3.1475497538
H 0.1340963533 -0.3633584763 2.3023595814
O 0.3156772953 2.7987599370 2.2386159489
H 0.5490694787 1.9682177567 2.6808912768
H 0.7745060389 2.7157772529 1.3938211393
O -0.8099234014 1.8004863403 -1.4208030668
H -0.7515354130 0.8620593503 -1.6779522529
H 0.0343029011 1.9227396706 -0.9660442410
O 1.7228092001 1.1070556331 0.0760970644
H 1.4593334027 0.3897367170 -0.5321648587
H 1.6075420708 0.6953782233 0.9454055062
O -1.1888980423 -0.8876410958 1.4619002515
H -0.8518851052 -1.1537693719 0.5841036769
H -1.6738268677 -0.0537032896 1.3066889385
19

Br -1.2283481778 -0.1171930934 1.1277131034
O 2.1917885715 0.0927764245 0.9274172084
H 1.2938152259 -0.1120247057 1.2363407127
H 2.2812250460 -0.4631887917 0.1314448570
O 0.8196924867 2.5660918329 -2.5076388236
H 1.7124573590 2.3305503123 -2.7661129859
H 0.8532148419 2.6251626469 -1.5255385087
O 0.8737058650 2.4793114691 0.2317734936
H 1.5190140445 1.7770892528 0.4457266018
H 0.0419578254 2.0573778425 0.4981872345
O -0.2870634880 -0.0931924749 -2.1337461622
H -0.6353315787 -0.0524154651 -1.2244103678
H -0.0516458573 0.8237250874 -2.3483088588
O -0.2503169626 -3.0166946914 -0.2501273894
H -0.5099257736 -2.2717426165 0.3241768729
H -0.7604976657 -2.8558518623 -1.0484678967
O 2.0088873716 -1.5628982888 -1.3948540841
H 1.3033304251 -1.0120663944 -1.7848994224
H 1.4941627276 -2.2583491722 -0.9581424685
19

Br -0.9217002339 -1.0974614776 0.3683103070
O 2.3733016979 -0.0143114793 0.2247777556
H 1.5214659303 -0.4673203750 0.3331309438
H 2.2369355506 0.8244307372 0.7019554551
O -0.2422658450 2.1253932220 -0.8829556482
H -0.6262054853 1.2940329526 -0.5639190176
H 0.4206269474 1.8277924590 -1.5337826749
O 1.4798122815 2.4526494732 1.3746481018
H 0.8761905858 2.0826756712 2.0374386361
H 0.9153755072 2.5136647304 0.5816411566
O 1.7883990199 0.8539986304 -2.4304340178
H 2.1497376356 0.5590719649 -1.5734532852
H 1.2542919204 0.0968619171 -2.7182363005
O -0.6519487480 1.1287341814 2.8385020804
H -1.4186692221 1.6524110854 2.5954376633
H -0.6821509023 0.3825901809 2.2094948878
O 0.1247033751 -1.4973944817 -2.7582209328
H -0.3107162966 -1.3515880884 -1.8959853017
H 0.7006991239 -2.2461311926 -2.5897468328
19

Br -1.6347669920 -0.7683132616 0.8841874009
O 2.6803624260 1.2939593320 1.2950856623
H 1.7758042743 1.5885884356 1.0842774667
H 3.1598961995 1.5138076983 0.4853929665
O 3.0485189943 2.2001127485 -1.5637794241
H 2.3717868964 2.8329251040 -1.3080437842
H 2.5360784755 1.4209399606 -1.8453601900
O 0.1908260787 1.9016771562 0.0257819919
H 0.4958614450 1.3335929375 -0.6995684899
H -0.5071950167 1.3532057386 0.4266748595
O -1.2703173224 -1.0177941236 -2.3730182086
H -1.5196886166 -0.8496475235 -1.4387505126
H -1.1984748518 -1.9743576275 -2.4043232020
O 1.6849506925 -1.3279565873 0.5334025642
H 2.0856809516 -0.5578110570 0.9704819359
H 0.7453209165 -1.2937079131 0.7898782862
O 1.3556453190 -0.0289358565 -1.8981886483
H 0.4905171741 -0.3224390248 -2.2335704595
H 1.5179612465 -0.5865629262 -1.1064799184
19

Br -1.6101682356 0.7214722465 0.6462114638
O -0.6339850020 0.8978440528 -2.4840731192
H -1.0497786591 0.8275879327 -1.5992749986
H 0.0408805395 1.5688970539 -2.3574053911
O 2.9805795077 -0.1167004646 -1.1525024612
H 2.4888966571 0.5940097191 -0.7050487840
H 2.2980662196 -0.6147688619 -1.6507082222
O 0.8653099315 -1.5373415307 -2.2803602678
H 0.2832922845 -0.7815579983 -2.4712519526
H 0.5377766172 -1.8780121898 -1.4265957624
O 2.8038002907 -1.3727653964 1.2446564233
H 2.9942511702 -1.0076704954 0.3477122415
H 3.4143281608 -2.0992023650 1.3727321918
O 0.1090308651 -2.2086170344 0.3912681317
H -0.5143897817 -1.4790460417 0.5548395719
H 0.9332595185 -1.9208384581 0.8112023255
O 1.6219019102 1.4939198255 0.7797976968
H 1.8861520506 0.8151343283 1.4101954854
H 0.6489001521 1.4032857711 0.7445381688
19

Br -0.3437302779 1.7245089196 0.4502548617
O 0.3462704674 0.0405067227 -2.4681439597
H -0.6024005432 -0.1668867229 -2.4406284261
H 0.4163863962 0.7115650866 -1.7692259365
O 0.6926737102 -4.1051633450 1.0760540285
H -0.0423828897 -3.5329989838 1.3224534698
H 1.0737087943 -3.6415800698 0.3184172626
O 1.4517381135 -1.9808122696 -0.8463043840
H 1.1456201488 -1.3829917251 -1.5551907876
H 1.9025801548 -1.3922089497 -0.2144179109
O -2.3909791099 -0.2155421642 -1.5366178218
H -2.0901898177 0.5735415280 -1.0589323903
H -2.1690428662 -0.9178496967 -0.9059172653
O 2.3003597837 -0.1374476642 1.1449833913
H 1.9871177425 -0.5481471536 1.9547249055
H 1.6013952069 0.5145506104 0.9326635156
O -1.0147606464 -1.6248206966 0.6258564143
H -0.9344524261 -0.6921114456 0.8857132614
H -0.2227490815 -1.7626978128 0.0756005920
19

Br -2.1787033614 -0.3565504841 0.0549717398
O 2.0920350658 -0.3821538437 -1.7881443766
H 2.7364060090 -0.2673561127 -1.0710819702
H 1.5602040464 -1.1491998627 -1.5047211836
O 0.5028990064 -2.3150863270 -0.4422153668
H 0.8017603748 -1.8775570436 0.3668168807
H -0.4110767204 -1.9835413683 -0.5088032792
O 2.6307149437 2.9664124844 0.1469281765
H 2.9616724672 3.1916981943 -0.7246798412
H 1.7372206916 2.6078157676 -0.0272295627
O 0.4206792167 1.5454062374 -0.6201338857
H 0.8803814794 0.8953775576 -1.1881317542
H -0.4927295616 1.2123397986 -0.5154736868
O 3.5593916163 0.2618260004 0.6827185030
H 2.8754264758 -0.0915232312 1.2654475519
H 3.3571597885 1.2102316786 0.6244786701
O 0.8120668257 -0.2056438980 1.6996931395
H -0.1138523614 -0.4638732961 1.8154719444
H 0.7272869249 0.4672978851 1.0021979602
19

Br -0.6661462094 -1.5605945208 0.1735983874
O 2.9419326315 1.4155739829 -1.1338491752
H 2.1156671622 1.2256191636 -1.6041061941
H 2.6636131800 2.0308601319 -0.4371951247
O 2.3283356832 -0.2470221241 1.2369987025
H 1.5119697331 -0.7411028623 1.0546317223
H 2.6593484427 0.0014619232 0.3602788833
O -2.8375123271 0.6667573135 -1.2872502611
H -2.5251454321 -0.1460590693 -0.8560212520
H -2.1259018934 0.8477741717 -1.9134508252
O 0.1510169993 0.9267368917 -1.8782387589
H -0.0546461973 1.4565772401 -1.0933654549
H 0.0463122204 0.0225502419 -1.5278919191
O 1.7461253301 2.5469119946 1.3000995913
H 0.7906630296 2.5651342554 1.1571579024
H 1.9217466118 1.6151008118 1.5227926966
O -1.0280965097 1.7341493499 0.7574111135
H -1.8385015190 1.7005093806 0.2282427480
H -0.8442278065 0.7892599917 0.9096837643
