19

Ca 0.0001161463 -0.0001365799 -0.0000593065
O -1.8062103493 0.3140996288 -1.5411501481
H -2.5930974099 0.8565885769 -1.4161645449
H -1.9007263995 -0.0780300405 -2.4165934009
O -1.1478782925 -1.8670424137 0.9663429923
H -0.8502866127 -2.4200984646 1.6975886740
H -2.0065261360 -2.2213150075 0.7088663238
O 1.8065434435 -0.3136819461 1.5410657689
H 2.5897676908 -0.8622139065 1.4194788954
H 1.9031482399 0.0823111893 2.4145427382
O -1.0763957868 1.4660327061 1.5584686615
H -0.9705956458 2.4214172220 1.6295533402
H -1.7072891603 1.2253343938 2.2463465759
O 1.1491409741 1.8662735230 -0.9661169985
H 2.0087603219 2.2187939641 -0.7094778347
H 0.8499215204 2.4226779675 -1.6941505368
O 1.0758807127 -1.4656216807 -1.5596846036
H 1.7051106576 -1.2241515856 -2.2488153192
H 0.9712927750 -2.4211687309 -1.6303538873
