19

K 1.3240973338 -0.1058825314 -0.9535280245
O 1.1270551862 -1.8506814147 1.0426865087
H 0.2315487024 -1.8214897474 1.4099538605
H 1.6705406614 -2.3138723437 1.6827029432
O -1.1488745158 1.2523530544 -1.6198146862
H -1.4772079215 0.3591707663 -1.8211817681
H -1.4638908546 1.8393498311 -2.3116790621
O -1.5606878179 1.4969377779 1.1210897559
H -2.1949201829 2.1143860939 1.4948857557
H -1.5922274701 1.6055244010 0.1521301960
O 1.2768782540 1.8365308025 0.8579651220
H 1.8599267730 2.3689967826 1.4022534261
H 0.3908484293 1.9208513102 1.2372172052
O -1.6464271673 -1.2921157505 1.3290055866
H -1.7419306373 -0.3269721371 1.4360750924
H -2.3236442784 -1.7049379501 1.8706605845
O -1.1775947694 -1.4580027949 -1.4155124573
H -1.4417801659 -2.2240451271 -1.9302716718
H -1.4820872744 -1.6122911317 -0.5025537590
19

K 0.5662295264 -0.2535480649 0.0063099004
O -2.0481430579 -1.6877779260 -0.0457032425
H -2.2568517050 -2.2508711453 0.7058285080
H -2.2399872655 -2.2188086341 -0.8245737815
O 3.2816182996 0.8155100599 -0.0102174510
H 3.6639340214 1.2556552934 -0.7745458929
H 3.6757118614 1.2524098454 0.7499982125
O -3.0396820563 0.9953732188 -0.0092619789
H -3.9580359455 1.2755186751 -0.0140188099
H -3.0309418880 0.0260980500 -0.0245130861
O 2.6147985325 -1.9819291134 -0.0036325769
H 3.3425363900 -1.3499895682 -0.0107160284
H 3.0081669662 -2.8565227963 0.0024325115
O -0.9188504725 0.9812938339 1.8676109970
H -1.7561196222 1.2343724041 1.4513503904
H -0.9075968018 1.3918317565 2.7339895794
O -0.8842801432 1.0377217189 -1.8447159171
H -0.8574110860 1.4768908062 -2.6965843223
H -1.7287036109 1.2778673667 -1.4351603031
19

K -0.6571994384 0.1971729118 1.0879108936
O -0.0547498616 -2.0955451594 -0.5903581763
H -0.3903047946 -2.9952929653 -0.5582349042
H 0.9120309853 -2.1691876399 -0.6652693243
O 2.7947923480 -1.9280138079 -0.8804197135
H 3.2001407447 -2.1598216106 -1.7212126447
H 3.4125820195 -2.2306731240 -0.2084950548
O -0.6286789173 -0.1452381566 -2.6022053689
H -0.7175187009 -0.3305157116 -3.5400292385
H -0.5335029984 -0.9970215122 -2.1464558492
O 1.3407374307 0.7472857819 -0.6353792818
H 2.0985077682 0.1640366304 -0.7494767490
H 0.9059707592 0.7631129357 -1.4983734575
O 0.2250068426 1.7096765079 3.1565335972
H 0.8903346238 2.3893825608 3.0204418654
H -0.0495053492 1.8096729058 4.0713615188
O -2.4398547598 0.9040140375 -0.7246392240
H -3.2626527186 1.3647312177 -0.8971305952
H -2.0502338363 0.6885670931 -1.5856777821
19

K -0.8176807145 0.5243515479 1.1344827950
O -1.5537590689 -2.0220251178 0.1163586716
H -1.9172859005 -2.8575470732 0.4195475115
H -0.6145183993 -2.1658425734 -0.0690673020
O 3.5058615770 -0.1302368551 -0.0811626851
H 4.1140872671 -0.8272634444 0.1824736402
H 4.0217071252 0.4625450347 -0.6359777098
O -1.5139340571 -0.6872869873 -2.4431507125
H -1.8065853266 -0.9822631861 -3.3089905149
H -1.8667125422 -1.3176041583 -1.7982230194
O 0.7688867868 -0.8198310270 -0.7058235508
H 1.7273605944 -0.6949706465 -0.7252847834
H 0.4280127875 -0.6893114522 -1.6000228589
O 1.7041258678 1.0578177604 1.8949215963
H 2.1318043645 1.5473232060 2.6006246289
H 2.4175116186 0.7273255449 1.3302015730
O -1.9772246737 1.6630817277 -0.9520670001
H -2.4488996604 2.4363508085 -1.2662951984
H -1.9462090929 1.0346325130 -1.6898208029
19

K 0.9135024297 -0.0990494203 0.5727973481
O -2.5466793551 -2.3824861270 -2.1990420939
H -2.9975828067 -3.1760627214 -1.9023880988
H -2.6669703490 -2.3506404351 -3.1505919065
O 3.2499859143 0.8230121258 -0.8246859013
H 3.7379475235 1.6132548022 -0.5776638961
H 3.3713309959 0.7413542979 -1.7744732960
O -3.0668011201 1.8795522255 0.5136816981
H -3.3538168875 2.5789924741 -0.0801764604
H -3.8271756731 1.6800833000 1.0673038769
O 3.1309497005 -1.5900233329 0.8651046812
H 3.7860431067 -1.1084498912 0.3498292691
H 3.5674628203 -2.3790007649 1.1926819621
O -0.4180798369 1.9524557892 1.6732069389
H -1.3330162407 2.0543106626 1.3720732925
H -0.2935849376 2.6047404752 2.3652061418
O -1.4553950355 -0.3751649796 -0.5461141940
H -1.8627883099 -1.0489668383 -1.1129734313
H -2.1468751327 0.2659377591 -0.3435857661
19

K -0.5240741649 0.6481376850 0.9510991670
O -1.1229762397 -1.9721077660 0.0780705615
H -1.3937612271 -2.8234898155 0.4296582965
H -0.1708700071 -2.0230375902 -0.1048341501
O 3.9325731964 -0.9865994079 -0.8909252532
H 4.5422395135 -0.3215902337 -1.2192159757
H 4.4135211617 -1.8170969138 -0.9160773661
O -1.1399902057 -0.7793342273 -2.5238676010
H -1.4019474744 -1.1207949138 -3.3822883146
H -1.4722315492 -1.4002442406 -1.8588873425
O 1.1749440062 -0.7387290756 -0.7404042826
H 2.1407853283 -0.8340018607 -0.8261462269
H 0.8181819686 -0.6720730934 -1.6354233215
O -0.6434745233 1.5070504507 3.5294641687
H -1.4193596287 1.8525870242 3.9785747000
H 0.0607711436 1.5604067753 4.1806149480
O -1.6708398005 1.6427861101 -1.2004908395
H -2.1300614501 2.3931522035 -1.5813582286
H -1.6219493511 0.9632738678 -1.8911767214
19

K -0.2353130911 0.2065370452 -0.1886984487
O -3.5429231991 -3.5160348252 -0.4099149772
H -4.0770889858 -3.8556282828 0.3115028160
H -3.6627397460 -4.1291999081 -1.1387850249
O 3.9713058929 1.0611951910 1.0891642242
H 4.3530591488 1.9435492788 1.0833539143
H 4.6650352537 0.4796571372 1.4137894251
O -1.7022288548 2.3965852977 -1.0104102295
H -1.7911003854 2.7344541311 -1.9050411160
H -2.0622379693 3.0872662827 -0.4483284628
O 2.2953018734 0.2750221671 -1.1383700913
H 2.9973196678 0.5248953720 -0.5212687697
H 2.7284506453 0.1035890227 -1.9768535123
O 1.2211873310 0.7464296186 2.0132880624
H 1.0563900730 0.8149325260 2.9556176735
H 2.1731216466 0.8748640173 1.8983125609
O -2.6034187540 -0.8974457165 -0.6228546583
H -2.9647401427 -1.7986076556 -0.5597714276
H -3.3321447362 -0.3428394567 -0.9086990412
19

K 0.5168119128 -0.7648546730 -0.9282995835
O 1.5808753687 1.7683836971 -0.4402186352
H 1.9856037243 2.4563143989 -0.9738063248
H 0.8796755164 2.2034842023 0.0704129626
O -0.4785648161 -0.2938945475 1.6843454281
H -0.6584527085 0.6623063778 1.6763755501
H -0.0640838639 -0.4923167922 2.5272635336
O 2.9589916381 -0.7038543722 0.0917976539
H 3.0155584712 0.2491972305 0.2227554171
H 3.7916443381 -1.0757772581 0.3888175724
O -2.1143179657 -1.6035590933 -0.1005882855
H -2.7745030426 -2.2962643278 -0.0228233795
H -1.8417281898 -1.3572192166 0.7974324676
O -1.8727349082 0.8393618155 -1.3467297302
H -2.3247824063 0.0420546188 -1.0204033635
H -2.3789763007 1.1634326095 -2.0958309501
O -0.9051255976 2.3120549614 0.8106983909
H -1.3426606115 3.0748784287 1.1963565749
H -1.4339721720 2.0207715381 0.0457259890
