19

Na -1.8650584438 -0.0139589668 -0.0053908047
O 1.8599032951 -0.0357474174 -1.3930427651
H 1.8027028714 -0.6764267154 -0.6620749608
H 2.5501909601 -0.3459111418 -1.9848198144
O -0.8461725705 0.4766457325 -1.9464540814
H 0.1141666408 0.3239004735 -1.9668252370
H -1.1104525445 0.7169891926 -2.8361152248
O 1.5676939747 2.2542699233 0.2575917764
H 1.8906833507 1.6791756912 -0.4519393259
H 1.7195083793 3.1630579371 -0.0087657265
O -0.3455943481 0.9016401022 1.5119249820
H 0.2919584002 1.5435009017 1.1158162004
H -0.5262740500 1.2130810099 2.4026051945
O 1.2135064436 -1.4243475535 0.9937792434
H 0.8358465939 -0.6521574390 1.4489463325
H 1.8763721146 -1.7965245235 1.5822546994
O -1.4906602598 -2.1621771945 0.5504417881
H -1.9168818309 -3.0209914954 0.5455240475
H -0.5500905977 -2.3073285155 0.7294756848
19

Na -1.2627191432 -0.0882180507 0.0004029573
O -0.1843407269 1.1292158246 -1.6154994318
H 0.6553217152 1.4855881778 -1.2889705392
H -0.3319197248 1.5071922189 -2.4837193028
O 0.1197352492 -1.9264402402 0.0032425010
H 1.0798676999 -1.8124173115 0.0029090248
H -0.0428285204 -2.8713176710 0.0102601552
O 2.1011322127 1.5687308531 0.0036088536
H 2.7740916316 2.2539062459 0.0046985976
H 2.5635577992 0.7150528306 0.0026328948
O -0.1883483954 1.1311687602 1.6179588365
H -0.3327060060 1.5033306829 2.4892156227
H 0.6526449485 1.4857638841 1.2928660076
O -3.5338554001 -0.5327439125 0.0002122468
H -4.1175845885 -0.5770578973 0.7615741432
H -4.1056437214 -0.6391288847 -0.7640568752
O 2.9713297197 -1.1688284839 -0.0003200889
H 3.4659792889 -1.4710278055 -0.7686202601
H 3.4711853721 -1.4731316655 0.7637620278
19

Na -0.0013755471 0.0005829311 -0.0015617880
O 1.2065895847 -0.2629210569 -1.9381947764
H 1.3667741335 0.2796641247 -2.7122652965
H 1.6907839302 -1.0898192952 -2.0720132454
O 0.7379575627 -2.1036061113 0.5472187112
H 1.3157825015 -2.5684110666 -0.0742750265
H 0.6130525055 -2.6868214580 1.2978909778
O -2.3776199181 2.8947762251 1.6930582211
H -2.8277200111 2.8530078741 2.5419471275
H -2.5945244918 3.7568459542 1.3260259555
O 0.2802504027 1.8033074414 1.3935962461
H -0.4963423892 2.3277149642 1.6345407379
H 1.0316504520 2.2018915518 1.8360625091
O -2.2284259859 0.5631049174 -0.0070655111
H -3.0144090089 0.2016955661 -0.4204296680
H -2.5124327434 1.3312237336 0.5081666931
O 2.3781994406 -2.8930634586 -1.6957966520
H 2.1004622141 -3.6087356026 -2.2751605341
H 3.3291765423 -2.9946369853 -1.5948608193
19

Na -1.1958278200 0.0826898657 -0.0624211610
O -0.0747740545 1.8000212849 -1.0599302990
H -0.2060414645 2.3813906630 -1.8109386343
H 0.8776898878 1.7835542188 -0.8798831406
O -3.4451947689 0.3019974553 0.3795199350
H -4.0856800159 -0.3936884955 0.5478174701
H -3.9484762627 1.1200701949 0.3892056457
O 2.4389828106 1.1888665477 0.0644858143
H 2.7082102877 0.2788950854 -0.1352723547
H 3.2404238959 1.7132170593 0.1376228129
O 0.4506580849 0.0735493639 1.6796346881
H 0.2898389019 0.2020851591 2.6177277526
H 1.1440074149 0.7053219556 1.4251906824
O -0.3755848876 -1.8056223030 -1.0350195888
H 0.5645241395 -1.9614945233 -0.8592457184
H -0.6254113801 -2.3896999950 -1.7531516815
O 2.2075158094 -1.6537835244 0.1394930089
H 2.8471261391 -2.3611199125 0.2607074970
H 1.7702237709 -1.5222524605 0.9916814235
19

Na -1.1003842929 0.4522044899 0.1734140102
O -0.4626785581 2.6255404188 0.1385353129
H 0.4955008364 2.6757631561 0.0173471721
H -0.7942278730 3.5244413817 0.1757018331
O -2.1528046146 -1.5517508344 0.2751809428
H -1.5062720402 -2.2592531783 0.1449451060
H -3.0047374537 -1.9652185901 0.4254349200
O 2.1058055363 1.4772250348 -0.2724774553
H 3.0106879354 1.7422595932 -0.4561407699
H 1.7960551850 0.9540960285 -1.0288338424
O 0.8287716145 -0.2499580655 1.4780583453
H 0.9076689085 -0.1980224612 2.4341596592
H 1.5046162513 0.3465900863 1.1075259744
O 0.3336859139 -0.2293585367 -1.6616008962
H 0.4791135371 -1.1630758768 -1.4232832024
H 0.0998029480 -0.2146594231 -2.5933516611
O 0.4792011409 -2.5374192651 -0.1370516224
H 0.9543360708 -3.3717637407 -0.1671507024
H 0.8290604402 -2.0289270335 0.6119204076
19

Na -1.9954368478 0.0077979476 -0.0027090418
O 1.7259785307 0.1124043865 -1.6283420706
H 1.8698540744 -0.6918694884 -1.1037589864
H 2.3707507445 0.0990374631 -2.3409918961
O -1.0724877945 0.2917036497 -2.0394135171
H -0.1030851621 0.2558585788 -2.0878026995
H -1.3879808232 0.4290807520 -2.9342971685
O 1.7250510132 1.3513671809 0.9249124498
H 1.8728860890 1.2981014243 -0.0331798735
H 2.3691545981 1.9746731899 1.2719420144
O -1.0738726319 1.6262496539 1.2649629093
H -0.1042305144 1.6831633574 1.2651818666
H -1.3914108890 2.3319536203 1.8310553158
O 1.7183372176 -1.4803743913 0.7212436592
H 1.8677063188 -0.6249043843 1.1554242606
H 2.3581596014 -2.0954116234 1.0902580769
O -1.0836780532 -1.9037333799 0.7675021188
H -1.4050492723 -2.7537524042 1.0732000638
H -0.1145562057 -1.9350347290 0.8239905930
19

Na -0.8863686551 0.1715356978 -0.1804071047
O -0.3907614969 -0.7060753119 -2.2475050559
H 0.4865535142 -1.1126312360 -2.3126883138
H -0.7317119429 -0.6463761823 -3.1417774593
O 1.2094071216 -0.4491388847 0.4751932355
H 1.7107601692 0.0057122757 1.1617967262
H 1.8317489099 -0.8978402570 -0.1090975149
O 1.8122970686 1.4153584304 2.6447828369
H 1.8259447070 1.0849714171 3.5478161312
H 2.5019037086 2.0842421962 2.6036725949
O -0.7310392180 1.8726562078 1.3531358799
H -1.2237819605 2.6553577528 1.6054288503
H 0.0803766508 1.8713320824 1.8827127820
O -3.0387219538 -0.6306218393 0.0322545591
H -3.6841062541 -0.4524106244 0.7202352752
H -3.4282155384 -1.3140636114 -0.5182156079
O 2.2431187014 -1.8349281124 -1.8848954447
H 2.9965190587 -1.5441310181 -2.4068435981
H 2.3117300652 -2.7932236266 -1.8439501239
19

Na -0.5941878530 0.1433196070 -0.0623494869
O -0.3022073362 1.7332341571 -1.7165111329
H -0.6085554913 2.5284542076 -2.1559767702
H 0.4825823163 1.4385048678 -2.1879802671
O 0.9480900460 -0.0443318932 1.6475154374
H 0.8766467190 0.2283572699 2.5640583091
H 1.8737558596 -0.2774271355 1.4962395517
O 3.4713510053 -0.8323030712 0.4678840652
H 4.2005392187 -0.2117704032 0.3771531934
H 3.8745016117 -1.6714709099 0.7090834948
O -2.2077721058 1.2694608520 1.2149768344
H -2.9803662286 0.8572115143 1.6083757718
H -2.3073046856 2.2110556848 1.3723751166
O -2.1172983368 -1.6124122635 -0.4240609631
H -2.8950967704 -1.5782147388 -0.9861553043
H -2.0416920246 -2.5281166711 -0.1457620134
O 1.2629607560 -0.6693185323 -1.4084016692
H 2.0938702167 -0.8072813869 -0.9303613238
H 1.2334056182 -1.3415258585 -2.0926664179
19

Na -0.6636373914 0.1959232155 -0.2818061669
O 1.0809736295 1.7950760382 -0.1863789478
H 1.1607667364 2.6737385930 0.1909232795
H 1.8905544793 1.3151550656 0.0431347258
O 0.3834772610 -1.4886433803 1.0019928322
H 1.3332713572 -1.3628488127 0.8534792522
H 0.2433170925 -2.4360288095 1.0644299285
O 0.7956378462 -0.1036925567 -2.2519263930
H 1.0175141007 0.8185154107 -2.4228050335
H 0.6346857772 -0.5061658440 -3.1099216434
O -1.6813514589 0.3955849249 1.8521205125
H -1.9999247996 1.0384582685 2.4895956756
H -1.1239021676 -0.2184194996 2.3416901167
O -2.8434558669 -0.2786524999 -0.8030148253
H -3.3333507844 -0.2875191590 0.0244598028
H -3.4810464742 -0.4520052215 -1.4984355205
O 2.7666577350 -0.4757743009 -0.1366760651
H 2.4841701769 -0.6285712677 -1.0486053332
H 3.7062296894 -0.6722907479 -0.0942955495
19

Na -0.1775018500 0.2605231440 0.0979313592
O 0.9170927049 1.0373643808 -1.7495900246
H 0.5612150541 1.1688493432 -2.6302555917
H 1.8849768686 1.0894759927 -1.8466788165
O 0.2949644382 -1.6270809462 1.3247657649
H 1.0799295452 -1.9922515738 1.7367170649
H -0.4101392522 -2.2790866006 1.4420142804
O -2.2077540308 -3.0879485234 1.3337443141
H -2.2971742102 -3.9239852083 0.8669786296
H -2.6928458795 -3.1952449558 2.1571676754
O 0.0685910857 2.2602857860 1.2169202083
H 0.4010222123 3.0347483442 0.7568658291
H -0.1286472063 2.5493385434 2.1105037938
O -2.3079369406 -0.5811455020 -0.0996800558
H -3.1202978806 -0.2813258509 -0.5111773975
H -2.5031040863 -1.4329513566 0.3155504275
O 3.6890484564 1.1516690423 -1.9370397556
H 4.2126904080 1.9556756517 -1.9702439571
H 4.2324974560 0.4690943191 -2.3377741843
