22

Br 0.6932321409 -1.2742766075 -1.5027594993
O 2.0180903219 1.8825741316 -1.2661102214
H 1.6790512724 1.0206892865 -1.5644707093
H 1.2278158744 2.3616495731 -0.9925717289
O -0.5039103253 -0.1705670025 3.0920861462
H 0.3629859419 0.0502012480 2.7258462469
H -0.9070205172 -0.7381940013 2.4009425511
O -0.3032150756 2.3738453315 0.6598460964
H -0.8964595600 2.5040873216 1.4189296680
H 0.2964470879 1.6630082805 0.9442450680
O -2.0883808553 2.0810686972 2.8717376520
H -1.5530848492 1.2777956927 3.0581654493
H -2.8688611278 1.7516274524 2.4209298679
O -1.6738591025 -1.5222908324 0.9585883197
H -2.0199644490 -0.7678244805 0.4477060989
H -0.9567810329 -1.8266595349 0.3798288786
O -2.0453674357 0.6543791120 -0.8494729307
H -1.4986070272 1.3290369562 -0.4106186462
H -1.3884030132 0.1296802516 -1.3359367980
O 1.7162624085 0.3352360955 1.2093598839
H 2.2311521897 0.9377838177 0.6540393939
H 1.4270983183 -0.3370000244 0.5612291299
22

Br 2.1294581742 -0.0428115092 -0.0773499598
O -0.3251398862 0.5025020351 -2.3518060362
H 0.4892837024 0.3670970816 -1.8361132745
H -0.8038038765 1.1827251373 -1.8542376211
O -1.8623303630 -0.5368797932 2.2467172386
H -1.2860565176 -1.2232619491 1.8782710927
H -2.5310835179 -0.3888298218 1.5508618348
O -1.8096836075 2.2758935499 -0.5654615323
H -1.8753510905 3.2255250262 -0.6677965864
H -1.2269186925 2.1215901569 0.2256820094
O -0.2793624515 1.6888842141 1.5417175288
H 0.5283947903 1.2862252962 1.1744794155
H -0.7813983486 0.9373991546 1.9159647927
O -1.8220401777 -1.7399519252 -1.5219301334
H -1.2967516894 -1.0223014273 -1.9279250805
H -1.2453436232 -2.0807368475 -0.8231215307
O -3.5088306505 -0.0482186594 -0.0192891177
H -3.1356315163 0.8109212248 -0.2621121021
H -3.0319502539 -0.6828185160 -0.5900135981
O -0.0568811232 -2.2749893878 0.7670773036
H 0.6332485369 -1.6144059593 0.5234429284
H 0.4333847211 -3.0587460706 1.0198597189
22

Br 2.3223528335 -0.1090853455 0.2179009850
O -3.7098935024 0.2611477005 -0.0737351447
H -3.4178311821 0.6913868600 -0.8921825512
H -3.1734468078 0.6755973379 0.6282747672
O -0.3684344324 -0.5652801310 -1.8575466785
H -0.8968093784 -1.1859221786 -1.3136511281
H 0.5394590514 -0.6266312349 -1.5161805670
O -0.2142694675 1.9353043810 -0.4355326565
H -0.3814427743 1.0851326310 -0.8808625380
H 0.7014283235 1.8010366904 -0.1426687989
O -2.3919613567 1.4620584674 -2.4460774336
H -1.8982895586 2.1644822858 -2.0091273860
H -1.7374109065 0.7506654959 -2.5226158182
O -2.0184415176 -2.0165168436 -0.1393312824
H -1.4787968714 -1.8595168125 0.6507669996
H -2.7126828431 -1.3308422370 -0.1031478917
O -1.8303972795 1.2901773072 1.7923008076
H -1.2531534121 1.6608448783 1.0990176618
H -1.3502948876 0.4962044988 2.0687073324
O -0.2038972617 -1.1522061818 1.9430220077
H 0.5678990900 -0.8406698292 1.4117786786
H 0.1865147383 -1.6477901130 2.6646899975
22

Br -1.8201787695 0.3503336593 -0.3533845566
O 2.8406260227 -0.4208615852 1.2106090086
H 2.0502359653 0.0293681642 1.5627916526
H 2.9902551830 0.0191811960 0.3616602751
O 1.4611459457 -2.7484634428 0.3175202480
H 0.6443312535 -2.6599396729 0.8358538615
H 2.0408177717 -2.0532954478 0.6796141879
O 0.5062796336 1.0290310809 1.9752468469
H -0.2448381218 0.7541972269 1.4173095892
H 0.7943672051 1.8234648169 1.4985669531
O 0.8050023030 -1.1017757261 -1.8567446010
H 1.0056737941 -1.7796863328 -1.1793610737
H -0.0267509355 -0.6983246645 -1.5473825889
O 0.7700051220 2.7358248112 -0.3400479686
H 1.4421792953 2.1988981696 -0.7868827862
H -0.0576438555 2.2607474845 -0.5136302250
O 2.6306970200 0.7815449147 -1.4535837219
H 3.1795287234 0.8622445855 -2.2339237692
H 1.9553281400 0.0783449508 -1.6615835773
O -0.8879648664 -2.0039788743 1.8632854666
H -0.4842284732 -1.3684678491 2.4616720497
H -1.3211375805 -1.4418059990 1.1943558240
22

Br -1.7628339023 -0.1821646449 0.9723579712
O 0.7147543804 -1.6120663572 -0.7946339637
H 0.6960450905 -1.3804144158 -1.7398361736
H -0.1284289931 -1.2823529166 -0.4302349736
O 1.1519693771 0.7497606793 2.4055115662
H 1.2768615967 -0.2036834207 2.5355956413
H 0.2299022712 0.7801186116 2.0949337971
O 2.8930783485 1.7181402784 -2.6992991146
H 2.8064312159 1.4314196108 -1.7720537139
H 2.2440320903 2.4202279599 -2.7873351519
O 2.1398491666 0.7493951027 -0.1923881707
H 1.7630943023 -0.1352105134 -0.3657496170
H 1.9462399546 0.9018120970 0.7536728136
O -0.3162494861 1.6779563242 -1.4841829536
H 0.4986370664 1.5315229476 -0.9758231561
H -0.9960749614 1.3049590072 -0.8990854139
O 0.7019448922 -0.2526340553 -3.3129491306
H 1.5650584702 0.1824525668 -3.3482290691
H 0.1624630898 0.3989109688 -2.8275517341
O 0.7887104422 -2.1497552327 2.1584205245
H 1.0941351081 -2.2791290078 1.2524920315
H -0.1113911527 -1.8087918511 2.0281610089
22

Br -1.4906458736 -0.2630562218 -0.5979368556
O -0.0304652183 2.7076887198 -1.6800250857
H 0.7958452305 2.2238410504 -1.5360305331
H -0.6857985051 1.9938175954 -1.6798391404
O 0.1202983594 -1.1506432206 2.3362301608
H 0.4643239383 -1.8735119303 1.7834584714
H -0.5807856472 -0.7981425510 1.7671691902
O 1.7507786864 0.5736544658 -0.7137929484
H 1.8335636285 0.8473166913 0.2263170076
H 0.8389481628 0.2261599505 -0.7590657940
O 3.2269030737 -1.7625679152 -0.7205162917
H 3.6927233310 -1.6759124705 0.1134796358
H 2.7554391199 -0.9078458970 -0.8223231341
O -0.6904119930 2.6268561772 1.1630794802
H -1.1518471070 1.8024726128 0.9450268436
H -0.4279220563 2.9387380780 0.2820090061
O 1.6625682578 1.2112122482 1.9833434490
H 0.9144740668 1.8227442264 1.8606766489
H 1.2330911330 0.3732799184 2.2392434068
O 0.6978138530 -2.9171485849 0.1549967743
H 0.0301800620 -2.3528986284 -0.2637467690
H 1.5413308108 -2.6431547978 -0.2391202263
22

Br -1.9473880369 0.1982892323 0.3699891757
O -0.1506378628 -1.5034237055 2.6420425246
H -0.7953523340 -1.1885268193 1.9792690240
H 0.0901880589 -0.6969452691 3.1059247031
O 1.1479412436 1.2022140255 1.2087150728
H 0.1784724433 1.1241947908 1.1597212410
H 1.4339098848 0.2959514997 1.0039628005
O 1.7601589060 0.2242225161 -2.8322491630
H 1.2164363635 0.9593706868 -2.4953961566
H 2.5181426324 0.2054346696 -2.2283185446
O 3.6836424918 0.2514070677 -0.5607560888
H 3.3391129621 1.0380229467 -0.1278690748
H 3.2397582348 -0.4772722301 -0.0934169333
O 0.2182772573 2.1647359945 -1.4279052991
H 0.7335316707 2.0711399548 -0.6132107327
H -0.6068570658 1.7127348264 -1.1889984701
O 0.1953611401 -1.7439158101 -1.4951734698
H -0.5409756287 -1.2431484046 -1.1063329395
H 0.6584954629 -1.1129859676 -2.0772737522
O 1.9041564321 -1.5924056323 0.6486762407
H 1.3470593699 -1.7601106192 1.4262009128
H 1.3079499182 -1.7513864710 -0.1183380726
22

Br 0.9582043289 -0.0808572323 -1.5381960206
O 2.2635917528 0.7500076254 1.4867314227
H 2.0648251499 -0.1188754937 1.8488701011
H 2.0210540849 0.6633427872 0.5484990601
O -1.4270586961 -0.3255459613 2.8107032985
H -0.7498951232 -0.8651263075 2.3736686031
H -2.1061044060 -0.2144655730 2.1182214544
O -1.3496381163 2.1542655918 -0.1606185029
H -0.9195291934 2.2816872702 0.7068826002
H -0.6974841719 1.6557877681 -0.6755911384
O -0.1134990089 2.1686097568 2.4025598270
H 0.7628693437 1.8325285547 2.1566574473
H -0.5933836318 1.3668954355 2.6828058674
O -1.6275859918 -2.0272810470 -1.0465886772
H -0.8770822137 -1.4424838527 -1.2855072624
H -1.9708281718 -2.3396727963 -1.8852533908
O -3.0699279029 0.0297408516 0.5221347471
H -2.5736478164 0.8216795562 0.2330679186
H -2.7143995847 -0.6847191401 -0.0251828104
O 0.4374966370 -1.9256986667 1.1992964809
H 0.6800217018 -1.3849303958 0.4236253212
H -0.2502576353 -2.4992199536 0.8449796554
22

Br 1.5651577712 0.0976871039 -0.3103082537
O 0.1584432768 -1.9732542853 2.0152248850
H 0.7114968611 -1.3713223675 1.4881089662
H -0.3569268137 -2.4433605945 1.3523440474
O -1.8004242481 0.0327522725 2.8023960465
H -1.1297530688 -0.6651192869 2.7286546564
H -2.3073395670 -0.0673338198 1.9754954131
O -1.2068009440 1.9249456983 -0.6821251192
H -1.1608057873 2.3756401980 0.1768610467
H -0.3774771492 1.4117538648 -0.6588266624
O -0.2742679216 2.2888152686 2.0052462118
H 0.4813731288 1.8361974499 1.6092600801
H -0.8050558674 1.5628156168 2.3874669498
O -0.9194811635 -2.0368207989 -1.0490747422
H -1.1078711199 -1.6315143367 -1.9072703901
H -0.1148930227 -1.5549592174 -0.7842548814
O -2.8786325886 -0.2471392784 0.1759831138
H -2.4246490669 0.5434528938 -0.1653060293
H -2.3240506797 -0.9733006064 -0.1517055856
O -0.6307710801 0.1032784243 -3.0686271211
H -1.1442583757 0.8111567998 -2.6628181090
H 0.2068104734 0.1308906833 -2.5820743601
22

Br -1.7406855772 0.4382080499 -0.4086561948
O 2.5549889764 -0.5031616454 0.7627923249
H 1.8468856237 -0.2305836126 1.3719959431
H 2.2619926692 -0.0869729810 -0.0684113703
O 1.2021686475 -2.9738531729 0.0758608125
H 0.4447020930 -2.7923198946 0.6575711183
H 1.8372309401 -2.2855650436 0.3298323665
O 0.4520879531 0.9559534363 2.0765349431
H -0.2438854145 0.9212505970 1.3924291994
H 1.0116656279 1.7002367049 1.8124924172
O 0.3850211854 -1.5649769845 -2.2924330173
H 0.6665386990 -2.1568607300 -1.5703786156
H -0.4125788427 -1.1434754445 -1.9349488991
O 2.6794029611 2.4810299827 0.7365616407
H 2.3313490502 2.2781739478 -0.1428618948
H 3.1229845055 1.6570884151 0.9725860843
O 1.4116760342 0.9233070065 -1.4746883699
H 1.3109130824 0.0960150344 -1.9822637236
H 0.4998962235 1.0456104421 -1.1515424781
O -0.8828458750 -1.9279084791 1.8047130118
H -0.4066065649 -1.2949392895 2.3517373995
H -1.3036313177 -1.3585596086 1.1344261035
