22

Ca -0.4286264031 -0.0301532317 0.0459632866
O -2.1396292620 -0.0840148745 -1.6343747078
H -2.4663509258 -0.8601347250 -2.1021795763
H -2.5769903676 0.6722858461 -2.0401646286
O -0.9052135743 2.3301128046 0.0451864699
H -0.3735588324 3.0218524532 -0.3631638507
H -1.5613826942 2.7918044568 0.5783611360
O -0.4437228957 -2.4170032532 -0.2311415707
H 0.1415114895 -2.9320525803 -0.7967999863
H -0.9107254311 -3.0613032332 0.3117584898
O 3.7269157066 0.2286499370 0.0118875839
H 4.2720268302 1.0234031658 0.0454366955
H 4.3515814902 -0.5053595773 -0.0171804463
O 1.3958074748 0.0806067757 1.5610970398
H 1.4634998029 0.0997478281 2.5201613796
H 2.3090070674 0.1163699302 1.2186350625
O 1.3699305910 0.1721595877 -1.4810166136
H 1.3898222317 0.2374396456 -2.4404922753
H 2.2948170900 0.2138184498 -1.1707619519
O -2.1377740667 -0.3349151944 1.7185901505
H -3.0740874901 -0.4407662895 1.5160670938
H -2.0813544616 -0.3586622629 2.6800288503
