22

Cl -1.6846287666 1.5689581286 -0.8315806003
O 1.4024309853 1.6167869398 -1.7296902879
H 1.5379322783 2.2253138722 -0.9874266923
H 0.4287217009 1.5686066256 -1.7549367500
O 0.7474073884 3.1832116682 0.6686934231
H 0.7594949807 2.4274160584 1.2717099799
H -0.1001135831 3.0540281913 0.2121300642
O 1.8172425105 -3.2270740587 0.8874141140
H 1.8836169159 -2.3937664999 0.3822538900
H 1.6096249017 -3.8838037977 0.2197027028
O -0.8382431584 -2.3208958462 1.8339842064
H -0.6586983699 -1.3800631086 1.9970225858
H 0.0416107609 -2.6981867074 1.6812194373
O 0.0374656392 0.4285746618 1.5843755455
H 0.6631395987 0.0039856621 0.9728179976
H -0.6473967481 0.7681009991 0.9729455773
O -1.2383896349 -1.6187417094 -0.9799289263
H -1.3323508306 -1.9012284507 -0.0550372346
H -1.5695464452 -0.7019342171 -0.9988190076
O 1.4208696060 -0.9401933741 -0.5961533520
H 0.5104096217 -1.1855858004 -0.8698807937
H 1.6061026907 -0.0947541602 -1.0494052051
22

Cl -2.5852441516 -0.0847575582 0.0283222541
O 1.1351821346 1.5462355400 1.7386776186
H 0.6214885363 0.7713500133 2.0408513782
H 0.5627722986 1.9477120135 1.0683577791
O 1.2297905482 0.8913518459 -2.1488620414
H 1.9022986176 0.6624168920 -1.4799517880
H 0.6165116833 1.4769932466 -1.6788157282
O 1.2546322253 -2.3058873245 0.2721030243
H 0.6643245917 -2.0475178763 -0.4878369020
H 1.3510574835 -3.2569879657 0.2194453757
O -0.3426796603 -0.8045623214 2.2197653662
H 0.1747320262 -1.4141567994 1.6728704463
H -1.1254334157 -0.6099636371 1.6712594275
O -0.3003678921 -1.4511033709 -1.7058448414
H 0.1878579603 -0.6584314550 -2.0017083275
H -1.0930282630 -1.0979978032 -1.2553488376
O -0.6784260271 2.2437881111 -0.4407334317
H -1.3228527541 1.5050450327 -0.2942932325
H -1.2206905518 3.0233651713 -0.5668486926
O 2.8836003808 0.1183013984 0.0418332795
H 2.3890986075 0.6556115696 0.6916925901
H 2.5297092977 -0.7745509592 0.1610052028
22

Cl -1.8716795801 0.1792171213 1.0528376733
O 0.3588274875 2.4675924890 1.0499467443
H -0.3688575207 1.8455437125 1.2415427423
H 0.2966242568 2.5731346732 0.0946641010
O 1.7886791540 -0.1078639829 -1.2090649549
H 2.1664358730 0.0909667516 -0.3282059523
H 1.0788015737 0.5478921409 -1.3164222997
O -0.3893276237 -1.0435158117 -3.3155770950
H -0.5262086722 -1.5438580331 -2.4898041355
H 0.5629185688 -0.9060985851 -3.3207028879
O 0.5521867734 -1.5243844689 2.2957136589
H 0.5098142268 -2.1034514260 1.5253057876
H -0.2329815478 -0.9614938696 2.1658323364
O -0.2374151874 -2.0078910154 -0.6358813616
H 0.5476157104 -1.4361209855 -0.7420015502
H -0.8733534853 -1.4354791298 -0.1660755307
O -0.6644281740 1.3785595560 -1.6487246941
H -1.1799100256 1.0285498431 -0.8962642901
H -0.7879464030 0.7262375451 -2.3545751143
O 2.4200044761 0.5019149231 1.4461020434
H 1.8143531180 1.2634084447 1.4184325498
H 1.8804254112 -0.2071725719 1.8389918216
22

Cl -1.5727311241 -1.2959283979 0.7324293842
O -0.7769672980 1.0963161658 2.5464367985
H -1.5537850329 1.4473761131 2.9848706100
H -1.1132887098 0.3460303019 2.0080493863
O 0.7355331964 -2.4454805109 -1.2135473629
H 1.4203468905 -2.2855995802 -0.5566843395
H -0.0831288979 -2.2175433871 -0.7368649693
O -0.0551280555 2.7336407727 0.2167782267
H -0.5914888324 2.2573264859 -0.4482765563
H -0.2310727115 2.2562276760 1.0414366891
O -1.4336963878 1.0443575845 -1.5730179030
H -1.6152064298 0.3337158222 -0.9366339655
H -0.6771881125 0.7081452422 -2.0894007719
O 0.9656105226 0.0278458142 -2.7398764325
H 0.9042764238 -0.8744490149 -2.3870527306
H 1.5138533966 0.4904314727 -2.0791530221
O 1.4716320574 -0.8278251344 1.4074382515
H 0.5318659753 -1.0161650485 1.2051794693
H 1.4216688168 -0.2820874111 2.1973230219
O 2.2627704261 1.2474499912 -0.5035045131
H 2.0891267958 0.5076679748 0.0999663713
H 1.5614401466 1.8869177461 -0.2760316994
22

Cl -1.7842712545 0.0045275551 -1.2956520420
O -1.9025280491 0.8806031942 1.7803113681
H -2.0730919203 0.5438770662 0.8807964373
H -1.2361219671 1.5592839401 1.6249490328
O -0.4006768713 -1.2260113390 2.9872378268
H 0.4613194731 -0.8243345888 2.8153542566
H -1.0210060098 -0.5373694183 2.6840017279
O 1.7437632230 -0.0081036002 1.2737239871
H 1.1813069103 0.7447704808 1.0187472453
H 1.3223168048 -0.7555021439 0.8127414223
O 1.1077640823 -0.8757694842 -2.3634500956
H 0.2003685370 -0.5354057831 -2.2548602917
H 1.1569891070 -1.5557538401 -1.6821727633
O 0.2555520650 2.0964649345 -0.0302122874
H -0.3830350919 1.5543321668 -0.5337595006
H 1.0581350692 2.0880747030 -0.5767236099
O 0.0414913780 -2.0929621630 0.2408595985
H -0.2361544094 -2.0939281227 1.1712383926
H -0.6307284503 -1.5434173832 -0.2086143013
O 2.7317810683 1.2097637965 -1.2831885852
H 2.8234209262 0.8039457019 -0.4108207156
H 2.2484723837 0.5283515602 -1.7861358560
22

Cl -1.6924023114 1.1201089183 -0.8473740340
O 0.7230404815 -0.6823753928 -1.8310146731
H -0.0973426448 -0.1824073003 -1.6475871645
H 0.4936093121 -1.6030883790 -1.6215532401
O 0.1250687546 -3.1037615835 -0.3678329421
H 0.7751696721 -2.7677406904 0.2592821057
H -0.7247250435 -2.7414585658 -0.0505354529
O -0.4976315111 0.2086687457 1.9778971981
H -0.8926551792 0.6361766171 1.1930371333
H 0.2320496877 -0.3145473922 1.6056542504
O 2.0817542164 1.7936060797 1.6673119526
H 1.2176031390 1.5903775052 2.0496229871
H 1.8705084251 2.0769148716 0.7579552328
O -2.1958150490 -1.7577309257 0.5600427610
H -1.8274461201 -1.3235633883 1.3428788835
H -2.2698809750 -1.0081794927 -0.0559375307
O 1.9046886032 -0.9194228491 0.7473375907
H 1.6222525248 -0.7113969195 -0.1627079470
H 2.2493192054 -0.0811486408 1.0987393131
O 1.2932658932 2.2315595818 -1.0319756847
H 0.3269493041 2.1104790942 -0.9629751163
H 1.5681743189 1.4382429695 -1.5047414704
22

Cl 2.5895386886 0.8335702866 -0.7868251602
O -0.8277991759 -1.4868617468 2.7232341549
H -0.1524800955 -1.7145713083 2.0611937233
H -0.5562110960 -0.6154768346 3.0278091284
O -0.1224177567 0.9276450048 -2.1822404958
H 0.7648160587 0.9109788723 -1.7380784274
H 0.0467081582 1.2826669812 -3.0558637319
O 0.4841358797 1.0486637115 1.5674711249
H 0.4620925253 0.1401135193 1.2231864608
H 1.2423218193 1.3938889802 1.0654421426
O -1.7884014833 1.7823022285 0.0575609746
H -1.0409742003 1.6921243993 0.6768643812
H -1.3659790706 1.6433627213 -0.8031824937
O 0.9085081794 -1.6318022844 0.4549572268
H 1.6229751674 -1.0919260153 0.0701995412
H 0.2679322328 -1.7596422881 -0.2742525122
O -1.1268912605 -1.6914075337 -1.4666300066
H -0.8665837050 -0.8422327330 -1.8564272625
H -1.8197090765 -1.4629876994 -0.8181860987
O -2.8283115763 -0.8095995010 0.6343478576
H -2.2870323983 -1.0756180865 1.3938152381
H -2.5954452449 0.1250017747 0.4801318804
22

Cl -2.1812964397 -0.1629217367 -0.7879400668
O -0.7739593430 2.4344410899 0.5721365145
H -1.3309370238 1.9088334841 -0.0267317934
H -0.5573623348 1.7756005904 1.2481698875
O 0.8701746401 -0.0261714052 -1.8577537087
H -0.0846595901 0.0198781445 -1.6679256510
H 1.2304588790 0.8232818451 -1.5424854392
O -0.4514545293 -0.1755740342 1.9183702833
H 0.2001813542 -0.7168567498 1.4413564570
H -1.2092561633 -0.1955848204 1.3070933125
O 1.8526542378 2.2937624030 -0.5184440791
H 2.2539111732 1.8112897378 0.2202963185
H 0.9569922623 2.5033556377 -0.1958990468
O -0.8887165392 -3.0546417451 -0.6390103211
H -0.6816522881 -3.1356864869 -1.5727261443
H -1.3929867801 -2.2160983428 -0.5963920491
O 2.5326759031 0.5606433143 1.8030203440
H 1.6768042117 0.7053238315 2.2217652359
H 2.4118684327 -0.2963505793 1.3659889877
O 1.4638283160 -1.6553559171 0.2769323015
H 1.3352887405 -1.0985931730 -0.5250001331
H 0.8071648416 -2.3583359699 0.1504964525
22

Cl -0.2920679362 0.1125314463 -1.8448764435
O 2.5818698573 1.6732795233 -1.0112986455
H 1.9434954625 1.2968534692 -1.6345715980
H 2.5394612178 1.0427111346 -0.2777426930
O -1.3654595697 -2.6480967486 -0.2886537234
H -0.6275750219 -2.8578412507 0.3049308750
H -0.9959297250 -2.0166303485 -0.9260704887
O -2.4295032405 -0.1178593296 0.6151539331
H -2.2604535153 -1.0720256960 0.5510626211
H -2.0101154608 0.1951503829 -0.2028845477
O 0.0512158412 2.9204888786 -0.1767663684
H 1.0030544117 2.8122956656 -0.3224182370
H -0.3091473272 2.2336651101 -0.7618564002
O 1.4099220962 -0.3769728018 0.7607259674
H 0.9127798897 -0.3592588394 -0.0833558257
H 0.8554660770 0.1867428628 1.3416956242
O 0.7884008503 -2.8968850317 1.6915492764
H 0.3369945222 -2.6753194175 2.5082968586
H 1.1242657002 -2.0348262126 1.3619301549
O -0.4207659824 1.2413517966 2.1070186386
H -1.1939061429 0.7616737850 1.7556191148
H -0.2947870996 1.9656193694 1.4685522917
22

Cl -1.9056515912 0.9989433268 -0.3829585531
O -1.0950548064 -1.7277769203 1.0199812548
H -1.0148405323 -2.3667254285 0.2985784995
H -1.4714383545 -0.9310686303 0.5951803772
O 1.6949210948 -1.3146891286 0.4072541659
H 0.8420333335 -1.4160837618 0.8646913894
H 1.4097665468 -0.9539075247 -0.4528913976
O -0.5351625299 1.0967119866 2.4665006881
H -0.6162319990 0.1486511198 2.6068366455
H -0.9963082508 1.2325196340 1.6153493828
O 1.1062758291 2.2721590488 -1.1487637217
H 1.5504450583 2.0861913854 -0.3018330192
H 0.1646286733 2.1979304041 -0.9300303814
O 0.4455139347 -0.3476524114 -1.9944439773
H 0.9213221176 0.5015229230 -1.9861701078
H -0.4039915861 -0.0779123872 -1.5898972305
O 2.1367681941 1.3877883445 1.3952287142
H 2.2065315688 0.4566221114 1.1310896531
H 1.2834387035 1.4113937374 1.8618751791
O 0.1252503923 -3.2254873810 -1.3172292260
H 0.1336208877 -2.4197321083 -1.8524195125
H 0.8949469232 -3.0964636757 -0.7500046973
