22

Li 0.9557837988 -0.1220466188 0.0386418402
O -0.6178658868 0.9668749630 0.4979181396
H -0.5177697309 1.6286219255 1.1922417651
H -1.4196632668 0.4579328247 0.6715204636
O 0.7769911243 2.8722886101 2.2339988744
H 0.7599798046 2.8777805290 3.1953546272
H 0.7619067672 3.7971587535 1.9709880085
O 0.4064512646 -1.8295412206 0.8129985299
H -0.5539560143 -1.9534175177 0.7733687382
H 0.8115231320 -2.6963269517 0.8655175590
O -1.7738623257 -1.2156813034 -2.6198683734
H -2.2800711089 -0.5541145830 -3.1017979545
H -1.8359562095 -2.0194754486 -3.1453771749
O 0.9589941267 -0.4047488641 -1.9004664776
H 1.3945730450 0.1547185709 -2.5464509878
H 0.1054468607 -0.6581268203 -2.2792418862
O 2.3570923460 0.9889138463 0.7752170162
H 2.0398397327 1.7045806500 1.3463983855
H 3.3016956373 0.9056610799 0.9126760043
O -2.2968635437 -1.3428830757 0.2265981236
H -2.3172517906 -1.3759130894 -0.7423452268
H -3.1466912342 -1.6646605258 0.5366745066
22

Li -1.5282388732 0.0887242235 0.0187215082
O 2.0870081859 0.4633222115 -1.5835966704
H 2.2479072963 1.0171419207 -0.8034819359
H 2.6898868101 0.7595019765 -2.2702090781
O -3.4696814754 -0.0964911682 -0.0915331676
H -3.9155884021 -0.9397158842 0.0192870994
H -4.1563686326 0.5487655158 -0.2739000685
O -0.7695554026 1.5538400994 1.0536401301
H -1.0566460194 2.4613823555 1.1678767742
H 0.1878458202 1.5341611574 1.2146898411
O 2.0271068163 1.0842483771 1.1780880277
H 2.6359305110 1.4908771304 1.8006269903
H 2.1352671186 0.1237545839 1.2655728668
O -0.8566055409 -1.5403995343 0.8637525649
H 0.0736377118 -1.7512644927 0.6806588674
H -1.0141505989 -1.7829848388 1.7784965531
O -0.7098642952 0.1420757135 -1.7385000540
H 0.2360066294 0.3185555756 -1.8692224321
H -1.0453907503 -0.2304391910 -2.5556711042
O 1.9337486442 -1.6257189771 0.3272890680
H 2.4936086950 -2.4026996073 0.4059820077
H 2.1166695047 -1.2342290424 -0.5417000087
22

Li 1.3715329076 -0.0511938833 0.1587055654
O 0.5799402548 -1.4977173919 -0.8578396571
H -0.3842622482 -1.6169202492 -0.7923018969
H 0.9571258907 -2.3601555334 -1.0405724850
O -2.1738031939 -1.3014222897 -0.4451900734
H -2.1934571301 -0.8309388087 0.4071883923
H -2.8556163730 -1.9771176769 -0.4128920218
O 0.1521718063 1.4867137816 -0.2492586921
H 0.4821990192 2.3885797872 -0.2530071485
H -0.4408804874 1.3934987344 -1.0337700615
O 1.1087587092 -0.2299714473 2.0856215765
H 1.5030283079 -0.8149631227 2.7351993823
H 0.1739461729 -0.1288284732 2.3210048176
O 3.2595384624 0.2078691254 -0.2427321904
H 3.6856362724 0.1480579408 -1.1011558043
H 3.9420424566 0.4770867882 0.3767933924
O -1.6063037291 0.4396799140 1.6968346505
H -1.1841694854 1.0979812799 1.1190875025
H -2.2396610031 0.9103090986 2.2455841780
O -1.7290018878 0.9980430893 -2.0576932628
H -2.0987224157 0.1446813833 -1.7880473333
H -1.7854966097 1.0490111556 -3.0139292134
22

Li 1.0885476640 0.9340624517 -0.1260219385
O 0.1668884297 1.1980208387 -1.8018230501
H -0.1980321018 1.9890986636 -2.2021588311
H -0.3768693438 0.4482108514 -2.0943740007
O -2.7929562204 -0.9938591522 0.2507712567
H -2.4228716468 -1.1969103077 -0.6210237967
H -3.7222694596 -1.2305242492 0.2325963425
O 2.9077553213 1.6078771768 -0.2232835241
H 3.3998576955 1.8312474803 -1.0168973236
H 3.4231413320 1.9351712081 0.5178883998
O 0.2758723927 1.4460324913 1.5528286505
H -0.0936817489 2.2796906886 1.8488205923
H -0.2272667114 0.7351307113 1.9854551787
O 0.9957279074 -1.0943587595 0.0947381364
H 0.4551755545 -1.2739118182 0.8934092584
H 1.8193490592 -1.5783687348 0.1972674377
O -0.8503042868 -1.0279526657 2.0899470323
H -1.6746878150 -1.0855234116 1.5556399918
H -0.9851983836 -1.5355401251 2.8934318602
O -0.9893971867 -1.3457348587 -1.9435947508
H -0.2274866012 -1.6054488622 -1.4023595782
H -1.0330255191 -1.9571785772 -2.6835896405
22

Li -1.3675918730 0.0617736183 0.0709833148
O 1.2415864268 0.1708653243 -2.2949492413
H 1.8296023887 0.5405391683 -1.6160531247
H 1.7403432345 0.1142515457 -3.1134794509
O -0.1975461737 -1.4261445852 -0.4058367111
H 0.4473204623 -1.6948342276 0.2630961895
H 0.3141147648 -1.2443998637 -1.2070746611
O -0.3637162798 0.7544989187 1.6695502965
H 0.2119348317 0.0629419480 2.0423001424
H -0.7304750995 1.2481286372 2.4070720786
O 2.2130053681 1.1430885411 0.1956253692
H 1.3760233884 1.4642795604 0.5606309611
H 2.8469096113 1.8577792270 0.3040832657
O -3.0615748148 -0.8403816335 0.3515645086
H -3.0711018445 -1.7677803977 0.0997289847
H -3.9698973586 -0.5994151093 0.5442972332
O -1.1194612717 1.3009611892 -1.3976048453
H -1.7101527009 1.8624157478 -1.9022205522
H -0.3738706126 1.0613536487 -1.9742108394
O 1.6256403908 -1.1640560508 1.7994684536
H 2.1059012120 -1.7186518179 2.4195488579
H 2.2654689517 -0.5666809850 1.3859613177
22

Li -0.3759206318 0.1978675141 0.9970247616
O 0.6605675249 0.3003789006 -0.7559517703
H 1.1773008633 1.1169878612 -0.8169169897
H 0.0427117856 0.2823313404 -1.5012123492
O 0.3605389527 1.7364553935 1.9100361128
H 0.2967345295 2.0976910222 2.7954062092
H 0.9776537511 2.2900437193 1.4113184460
O 0.0422839993 -1.5871082993 1.6370684179
H -0.0321248321 -2.0602596998 2.4668843942
H 0.1869972512 -2.2395178153 0.9356250629
O -1.4508529382 -0.9470749534 -2.1476600839
H -1.8834848865 -1.0737641034 -2.9954206755
H -0.9679361366 -1.7638121903 -1.9476841601
O 2.0155355033 2.7961005567 -0.1819580630
H 1.7697362723 3.6247539852 -0.6042125914
H 2.9748080674 2.8156199818 -0.1139047359
O 0.5906918674 -2.5514097250 -0.9498059032
H 1.1197635208 -3.2928175802 -1.2562387660
H 1.1458795324 -1.7617075818 -1.0136200681
O -2.1741878218 0.2729714518 0.2539019535
H -2.2473313525 -0.1843000213 -0.5990508544
H -3.0480935983 0.2939755849 0.6468364641
22

Li 1.3675452339 0.1392629414 -0.5093925662
O 1.2316267395 -0.8211227639 1.1997113582
H 0.3387322816 -1.1767740797 1.3395082602
H 1.8456940187 -1.4494584713 1.5846703607
O -1.5803354290 -1.2494681572 1.4035051539
H -1.7519832670 -0.3747974325 1.7922681624
H -2.0231355244 -1.8935186649 1.9626562536
O -0.2218791683 1.2829299161 -0.4601537728
H -0.9332794329 0.8735246705 -0.9723257828
H -0.6247151295 1.5572166650 0.3734716417
O -1.8655827042 -0.8690579761 -1.4134112924
H -1.9622093388 -1.1813769798 -0.4988857490
H -2.6809571922 -1.0779809018 -1.8747681919
O 2.9008265722 1.2969054114 -0.8234128168
H 2.7504995491 2.1733760187 -1.1863220695
H 3.8516777028 1.1934070376 -0.7495661271
O 0.8632322057 -1.0482723758 -1.9639394515
H -0.0908304921 -1.2062808376 -2.0389042432
H 1.2875091519 -1.4195367638 -2.7383197337
O -1.5879668285 1.4883935699 2.1665751717
H -1.0090899346 1.7084033930 2.9030221319
H -2.3626825191 2.0495069613 2.2689504607
22

Li -1.3127596431 -0.5843180710 0.2664115477
O 0.9083810123 0.8017696161 -2.1399242933
H 1.0736226476 1.3020152123 -2.9425216815
H 1.7768289689 0.6342272854 -1.7101880659
O -0.5834337126 1.3165907614 0.0763238725
H -1.1983973806 2.0545684956 0.0946792606
H -0.1070400220 1.3617090845 -0.7803524792
O -0.8542667210 -1.2351257752 -1.4977038750
H -0.8064624055 -2.1226483531 -1.8569207642
H -0.2004872165 -0.6931372713 -1.9718216026
O 1.5675299082 0.7801779582 1.8806674657
H 0.8863586045 1.2979845487 1.4230373854
H 1.8792269948 1.3136364255 2.6167993378
O -3.2357215366 -0.6618434312 0.5227904291
H -3.8844218154 -0.7754684944 -0.1761049000
H -3.7136440732 -0.7380880273 1.3519987053
O -0.3847724357 -1.2137995279 1.8377987291
H -0.3093779209 -2.0840673088 2.2326503907
H 0.4090179471 -0.7113754200 2.0850084977
O 3.0065600382 0.3221264876 -0.5524625432
H 3.8829865792 -0.0623995297 -0.6088831266
H 2.7760888991 0.4006277174 0.3845530816
22

Li 1.6240477094 0.4312532086 0.2818977387
O 0.2040091560 1.7735336342 0.3010773485
H -0.5399934881 1.5077492654 0.8635795237
H 0.2336568562 2.7313907165 0.2928650878
O -1.7276686063 -1.4037168647 -0.6557186497
H -1.9688563966 -2.3331410393 -0.6201468246
H -2.3158038795 -0.9942883932 -1.3239073661
O 3.4612159711 1.0259031786 0.0534555932
H 3.9286138516 1.2387480554 -0.7574671840
H 4.0360555088 1.2938856847 0.7744420645
O 1.3445087368 -0.3178088140 2.0762923085
H 1.7311663430 -1.0728534054 2.5230074670
H 0.3904930105 -0.3391013996 2.2534677242
O 1.0314945726 -0.8360159260 -1.0710393527
H 1.5009839600 -1.5657825791 -1.4786194451
H 0.0919400231 -1.0862421411 -1.0395280414
O -1.4351404776 0.0304437045 1.7302557179
H -1.7084327969 -0.5143968454 0.9684675001
H -2.1883547166 0.0916648795 2.3223354741
O -3.3422020157 -0.2197508034 -2.5240881822
H -4.2980644448 -0.1341475035 -2.5027524121
H -3.0714539948 0.0132739120 -3.4150842599
22

Li 0.7102061606 -0.5378957362 -0.3557550723
O -0.4670516143 -0.1540782259 1.1498246600
H -1.1437712513 0.5318407047 1.1688876257
H -0.4507266298 -0.6149245638 1.9947643337
O -2.2588912627 2.0838481544 0.4303332394
H -3.2033330528 1.9004857196 0.4207941767
H -2.1614528154 2.8934180789 0.9411172315
O -0.4228240425 -0.7841201320 -1.9314171561
H -0.7232280870 0.0432888251 -2.3331673579
H -0.6988875498 -1.5078858948 -2.4944786473
O -0.8648347451 1.9910440284 -2.1041968460
H -1.1364088725 2.6213854861 -2.7756773539
H -1.4247310092 2.1474401124 -1.3265622010
O 1.5356045403 1.1576251533 -0.8831533227
H 0.9709378132 1.7108833284 -1.4409962087
H 2.4121276885 1.5431757360 -0.8701801772
O 1.7164233840 -1.9818603952 0.4419082760
H 1.4776728263 -2.2123861637 1.3520655191
H 2.4327055549 -2.5586057182 0.1730743919
O 0.5319527069 -2.1543514512 3.0397481312
H 0.0182039830 -2.9294617042 3.2847399887
H 1.0326108781 -1.9196280008 3.8264918432
