22

Mg -0.4616510404 0.0007322814 -0.0179186659
O -0.6014385963 2.1023915317 0.0870439461
H -1.0668645262 2.6705247887 -0.5358975770
H 0.0102919796 2.6693985565 0.5681960413
O -1.9675988725 0.0085217347 1.4471550145
H -2.3437685129 0.7862933963 1.8728062235
H -2.3462439010 -0.7647299965 1.8788021249
O -1.9652845517 -0.0007211889 -1.4923142236
H -2.9013765613 0.0004326755 -1.2624794058
H -1.9236331146 -0.0019610939 -2.4543566446
O 1.0632830622 -0.0071935449 -1.4305201407
H 1.9976451707 -0.0049447493 -1.1453381449
H 1.0624587039 -0.0176493125 -2.3916711846
O -0.6113924585 -2.0997517927 0.1003080259
H 0.0001924581 -2.6662014257 0.5823165815
H -1.0811918885 -2.6698007278 -0.5175806702
O 1.0700903358 0.0010318267 1.3809712424
H 2.0152614431 -0.0001798307 1.1324009671
H 1.0115665627 0.0023615249 2.3409602325
O 3.4555907464 -0.0022143749 -0.0106497939
H 4.0414119382 0.7640299813 -0.0215649080
H 4.0410101346 -0.7688098735 -0.0183886306
