25

Cl -0.6850213122 2.4470605176 -0.2333050993
O -2.0582635358 -1.8757700088 -1.1769065299
H -1.9119540429 -1.1306774322 -1.7858674705
H -1.2358487617 -2.3898886963 -1.2161885960
O 0.6163249492 1.6467572009 2.5618389096
H 0.2737368463 2.0714357842 1.7521198571
H -0.0325234265 0.9579349440 2.7374356074
O -1.2808387509 0.4419064396 -2.6963795010
H -0.3360898729 0.2509790004 -2.6526705243
H -1.3656050965 1.1629518385 -2.0480394217
O -1.4009119370 -0.3790517668 1.1284630100
H -1.3033976276 0.5065792173 0.7328041911
H -1.7926791556 -0.9203120487 0.4162583497
O 2.7712977540 0.1244655298 1.4790844834
H 2.1555348355 0.7303656462 1.9308207254
H 2.5604562063 0.2474284139 0.5419783452
O 1.2703531225 0.1558840577 -1.0683761607
H 0.7996069131 0.9884439486 -0.8479243093
H 0.7493211214 -0.5087538945 -0.6011204086
O 0.5946242251 -3.0669180656 -0.9965576239
H 1.2656380825 -2.6364044571 -1.5310946700
H 0.7806303737 -2.7831834023 -0.0741655874
O 0.8804476033 -1.9954756596 1.5153736553
H 0.0895309910 -1.4228400203 1.5144831262
H 1.6303479668 -1.3803566581 1.6149643869
25

Cl -0.6332024036 2.1179080815 -0.2280863066
O 1.1125671148 -1.4437240263 -1.9636849755
H 0.9112624395 -1.7999762274 -1.0755398980
H 0.2634205598 -1.0788215414 -2.2522399383
O -2.3737633744 0.2939715574 1.8175317773
H -2.0622868627 0.9666792108 1.1867766524
H -1.5751493401 0.0968849799 2.3216272459
O 0.5872153115 0.2470213488 2.0659529728
H 0.3377873866 0.8996053422 1.3851944632
H 1.5558349473 0.1867440640 2.0068850771
O 0.3186288087 -2.2238603296 0.6265834532
H 0.3793037303 -1.3995614730 1.1427440001
H -0.6319145322 -2.3004120291 0.4275545430
O -2.4423593738 -1.8790675379 -0.0462106408
H -2.2346742156 -1.3809422640 -0.8506408364
H -2.5534826368 -1.1861198364 0.6296586308
O -1.4635777704 -0.1121326907 -2.1683607297
H -1.1970788232 0.6223064747 -1.5639436096
H -1.9544649796 0.3153655438 -2.8718578203
O 2.3238310343 0.9377536751 -1.0748782879
H 1.9639823945 0.1272141033 -1.4862570798
H 1.5301305765 1.4530933401 -0.8559663478
O 3.2801605032 -0.2155062586 1.2445047853
H 3.1382833842 -1.1430054209 1.0374938931
H 3.0334150843 0.2527802941 0.4151940334
25

Cl -0.6579528448 2.3272125504 -0.4203739323
O -2.1271484056 -0.0859170541 0.9491469539
H -1.6254698208 0.7201741383 0.7060796761
H -2.8291629600 -0.0910928030 0.2856071754
O 0.0661824364 -1.1117232725 2.6332138734
H 0.5602784320 -0.2955121419 2.4191266455
H -0.8117849053 -0.9486607593 2.2643798561
O 2.9279213723 -0.4702414030 -0.3105948331
H 3.7897129714 -0.3271965050 -0.7022577710
H 2.2579194729 -0.2234795815 -1.0028310370
O 1.5003151770 1.1219550778 1.6867267555
H 0.8790175966 1.6082183119 1.1155925664
H 2.0979225644 0.6806501468 1.0653242397
O 1.3752556624 -2.7335741044 0.7180758099
H 2.0487974339 -2.1101212319 0.4101720702
H 0.9588860223 -2.2769833537 1.4751548818
O -2.8462516024 0.3526763542 -1.8712368749
H -2.2543508606 -0.3752294196 -2.0872375308
H -2.2463502036 1.0754538722 -1.6172482796
O -0.7448062066 -1.8429937149 -0.9197688906
H -1.1729779416 -1.3152802576 -0.2238261596
H -0.0332404200 -2.3153457364 -0.4454236528
O 0.9595270307 0.1242244828 -2.0037457894
H 0.5398696528 0.9250671640 -1.6319908684
H 0.3416014993 -0.5884263813 -1.7486603916
25

Cl -0.2730057197 -2.1939946509 0.8964383730
O 1.1192858011 0.3559361246 -2.0348004488
H 1.3450752879 -0.5140899168 -2.3898304222
H 1.4722521397 0.2901994820 -1.1213521921
O -0.0796964812 2.9157507304 -0.9642994876
H -0.9748163850 2.5827127033 -0.7566460177
H 0.2984918463 2.2474327043 -1.5492294405
O -1.2781462941 0.4324532195 2.1729240070
H -0.9734817692 -0.4064061454 1.7533102776
H -1.6323874207 0.1662130886 3.0226370604
O -1.6042160616 -0.5799585616 -1.5792055259
H -0.7334549647 -0.2184551638 -1.8145215561
H -1.3913666049 -1.2045771672 -0.8651652297
O 1.9308958505 -2.4368329513 -1.5319127154
H 2.5656370701 -1.9705800915 -0.9783460503
H 1.1700492615 -2.5402215994 -0.9349771939
O 0.9485953872 2.2443728609 1.6166592845
H 0.6557428639 2.5953511468 0.7548001091
H 0.1856812553 1.7394753198 1.9358765395
O -2.5019985637 1.6765627271 -0.1928906921
H -2.3391187128 0.8806391081 -0.7373557824
H -2.2592495594 1.3853311865 0.6970767705
O 2.0992272892 -0.0933934416 0.5368190085
H 1.4171799044 -0.7380950485 0.8022388331
H 1.8600630692 0.7296487772 1.0040759870
25

Cl 0.2284733193 2.2822162950 -0.5617759686
O -1.7787167435 0.4373470110 1.1019152421
H -1.3508667041 1.0836354673 0.5091510743
H -1.0172172625 -0.0801811303 1.4207285539
O 0.6830328005 -0.7046060849 2.1198331361
H 0.6598450499 0.1268236736 2.6164333728
H 1.3488752822 -0.5311728890 1.4170939812
O -2.4017333933 -1.5114619509 -0.8465210951
H -2.4038730013 -0.8270995704 -0.1526347670
H -1.8888248264 -1.0961603573 -1.5550952154
O 1.4091654385 -2.0572496235 -1.7210314367
H 0.7823519894 -1.4456880320 -2.1347940924
H 0.8876145361 -2.4974931104 -1.0245895816
O 2.4035848181 -0.0717300143 0.0527060606
H 1.9013302699 0.7119142701 -0.2271313294
H 2.1989145905 -0.7513400992 -0.6161453597
O 0.1435613717 2.1280796557 2.7370041936
H -0.7847858092 1.8915510612 2.6306901473
H 0.4019588546 2.3442530896 1.8254297907
O -0.5064803961 -0.0085030511 -2.5040940499
H -0.2703668281 0.7242126403 -1.8878142955
H -0.6172787474 0.4145137463 -3.3568768685
O -0.2879942439 -2.9767573374 0.3866270118
H -1.0869734767 -2.5726579639 -0.0007620194
H -0.0429393141 -2.3897836572 1.1140164977
25

Cl 0.3729654261 1.7657893514 1.5730491849
O -0.6746466448 0.1609823681 -1.9968217840
H -0.1492717995 0.9779108332 -2.0804027523
H -1.3188363629 0.3664433608 -1.2857124113
O 0.3780933819 -1.2524682253 1.9341206965
H 0.3592911507 -0.2629893969 1.8906839803
H 0.9093176170 -1.4643148899 2.7030130835
O 2.9544469734 0.8587339722 -0.2515998122
H 2.6006049652 -0.0089759187 -0.4996606008
H 2.3545872822 1.1516347383 0.4549385965
O 0.9580321360 2.4529002940 -1.6194524991
H 0.5910857187 2.5481050520 -0.7262918103
H 1.7979347266 2.0034179544 -1.4305996924
O -2.1791261857 -2.1405767968 0.8584985160
H -1.9121545209 -2.4543940083 -0.0219807478
H -1.3450865200 -1.9867626574 1.3260749045
O 1.2610342776 -1.4952319378 -0.7830132547
H 0.6321090479 -0.8543173548 -1.1759734529
H 1.0351648077 -1.4982013576 0.1621761582
O -1.1367727630 -2.7706977608 -1.7980877468
H -0.2152557131 -2.7204103819 -1.5011891096
H -1.2588902816 -1.8963350661 -2.1919413881
O -2.3453524606 0.6437669428 0.1723503408
H -1.6558157105 1.0536975560 0.7222021416
H -2.4287074480 -0.2665847961 0.5056550946
25

Cl -0.9318571121 2.2177052509 -0.1594189077
O 1.7075296123 -1.0034542057 -2.5464984809
H 1.7216874475 -1.7826358677 -1.9699308583
H 1.9620773725 -0.2665193025 -1.9596526473
O -2.5026747392 0.0472888916 1.6429370658
H -2.2659455240 0.7197241995 0.9775990224
H -1.9389480793 0.2925341635 2.3852671497
O -0.0153788495 1.4084975216 2.6593477935
H -0.2559136397 1.7433423064 1.7618003063
H 0.3818556600 2.1580869434 3.1051920805
O 1.2641459167 -0.8486262491 1.4478747479
H 0.9613947077 -0.1430016081 2.0404093220
H 0.4519236568 -1.1399836197 0.9898527410
O -1.0345015720 -1.8635730045 0.1073973772
H -1.1016325606 -1.3674485240 -0.7395850500
H -1.6583991039 -1.4087651433 0.6988171632
O -1.0412412773 -0.3440119084 -2.1894285575
H -1.0201369001 0.5155008539 -1.7365145684
H -0.1205934189 -0.5175946753 -2.4600930106
O 2.0888742654 1.0112957160 -0.5904566396
H 1.9394123166 0.3777083133 0.1321133577
H 1.2676188247 1.5305244801 -0.5913371240
O 1.5113707144 -3.1285841054 -0.4599942702
H 1.9390621507 -2.6346614485 0.2483972845
H 0.5699873147 -2.9784689545 -0.2842310305
25

Cl 0.0064330914 -2.2861561396 -0.2732014831
O 0.2113898937 0.2585807297 -2.2846484506
H 0.2895912214 -0.6488643627 -1.9462443779
H 0.6412164491 0.7832320638 -1.5876626848
O -0.8582240775 3.4556025922 -0.8525115209
H -1.4686297898 2.9211259024 -0.2978831984
H -0.9542957983 3.0842789829 -1.7332082847
O -0.2611743754 0.1283883999 1.7138911386
H -0.3417478434 -0.5932495653 1.0547864928
H 0.3505354554 -0.2643485120 2.3570404961
O -2.4232207838 -0.2844361045 -1.3013093311
H -1.6515814456 0.0536644201 -1.7889189396
H -2.0550455378 -1.0842101284 -0.8961917349
O 2.8734314067 -0.7620095060 0.1786254255
H 2.6160594995 0.1534394474 0.0091599146
H 2.1226101635 -1.2822641440 -0.1552182012
O 1.2712384776 1.7381331618 -0.0116817174
H 0.7200101477 2.5020191834 -0.2502122781
H 0.7468959835 1.2595554819 0.6595061046
O -2.4132109842 1.7271856270 0.6637056122
H -2.5689165780 1.0245926701 0.0022465627
H -1.7899532800 1.3116698578 1.2775874332
O 1.7155258660 -1.7217372742 2.6341118153
H 2.3183690621 -1.3354579806 1.9755535554
H 1.1694341404 -2.3000583294 2.0842934981
25

Cl -1.9035514107 2.2283178426 0.1382500342
O -0.4756360308 0.8713231145 -2.2040353180
H -0.9376796392 1.2961650975 -1.4384558867
H -0.8869946269 1.2570360764 -2.9789315874
O 2.2324372022 1.0157769221 -1.1148993031
H 1.4517652030 1.0803171713 -1.6836363956
H 1.8418260656 1.0589095271 -0.2211049010
O 0.7772972583 0.9009272980 1.3075288740
H 0.0589752196 1.5267993283 1.1057013287
H 0.3374468684 0.0359855541 1.2250425033
O 2.7112881257 -1.7692929078 -0.9893951738
H 2.6762932230 -1.8951827691 -0.0278430710
H 2.6895913798 -0.7991252855 -1.0961979517
O -0.0483939927 -1.9346126804 -1.6112345317
H -0.2291456172 -1.0277081954 -1.9049079431
H 0.9224208983 -1.9725989981 -1.5064707531
O 2.2326571902 -1.7728283981 1.9194518106
H 1.2758755590 -1.9124008664 1.8159216404
H 2.2963750152 -0.8235764539 2.0674549085
O -0.4773909343 -1.6931387175 1.1157703905
H -1.3775619482 -1.3594007704 1.2813382798
H -0.4231227152 -1.8413541451 0.1480516700
O -3.0271008003 -0.4796755835 1.2066595017
H -2.7264965979 0.4233341648 0.9616813857
H -3.4662289075 -0.7932699242 0.4133532944
25

Cl -0.7773269249 -2.2470421288 -0.0038548580
O 0.6661550863 0.0182724725 -1.8593882562
H 0.3012365406 -0.7131708097 -1.3324951082
H 1.5666707129 0.1330226941 -1.4997172793
O -0.1215388902 2.6584755864 -1.0038989155
H -0.9928300629 2.5138129490 -0.5960909318
H 0.1028535169 1.7887482239 -1.3803191994
O -0.6102846228 0.0554790553 2.0049419259
H -0.6872893540 -0.6902866056 1.3608106274
H -1.0428648304 -0.2579605857 2.8014075323
O -2.4286263866 -0.2119549114 -1.8691657222
H -1.6253702581 0.0931476297 -2.3059201427
H -2.1143017928 -0.9664148526 -1.3405120624
O 2.0770380493 -1.8244441950 1.3889652412
H 1.6776283054 -1.1692645550 1.9695233984
H 1.3110866181 -2.1594706850 0.8890645760
O 1.4373597348 2.0782028671 1.2623763794
H 0.9470382992 2.4469453668 0.5011570395
H 0.8106143167 1.4459671921 1.6396136700
O -2.4860857046 1.6759500440 0.2840814700
H -2.6205104327 1.0412894173 -0.4427154033
H -1.9569462672 1.1876654542 0.9300781608
O 3.0403536112 0.3201595146 -0.3378213747
H 2.9117273977 -0.4981111216 0.1673779922
H 2.6323292267 0.9981185516 0.2313690542
