25

Mg -0.0004698166 -0.4036905810 -0.0015239684
O -1.0224735101 0.9521711871 1.2117522560
H -1.9079810570 1.2936302040 0.9885295077
H -0.6391843946 1.5265618362 1.8804408945
O 0.7371649570 -1.9472908138 -1.2486910354
H 1.0729301871 -2.8142577008 -0.9990669796
H 1.1464340345 -1.7360179144 -2.0947859458
O 3.4703783163 1.4635182130 0.0272677123
H 4.3009286037 1.1548222778 -0.3532708906
H 3.6777122518 2.3192623968 0.4203899378
O -0.7376556220 -1.9450729043 1.2490619778
H -1.0703845341 -2.8143614727 1.0034739911
H -1.1472742525 -1.7319761078 2.0945342844
O 1.0233242081 0.9509654340 -1.2145883612
H 0.6420140803 1.5244365096 -1.8851985722
H 1.9085690148 1.2921245945 -0.9900693934
O 1.6671781316 -0.2689627713 1.2347065721
H 1.9208513933 -0.8638747284 1.9460371177
H 2.4433863922 0.2772824841 1.0074938731
O -3.4700208226 1.4647937482 -0.0257795146
H -3.6777074966 2.3204694621 -0.4188770370
H -4.2999781180 1.1565228454 0.3563903791
O -1.6688068699 -0.2697408623 -1.2360278378
H -1.9242165363 -0.8656142132 -1.9459367816
H -2.4443802939 0.2768975831 -1.0077505530
25

Mg 0.2572313495 -0.5078689812 -0.2113139148
O -0.6158236168 1.2142499625 0.5128347698
H -0.1391802279 1.9457618715 0.9362840833
H -1.5643909751 1.4153197832 0.4766053628
O 1.1444600643 -2.2565928266 -0.9478867977
H 1.2851322993 -3.0745901935 -0.4605385653
H 1.4814794110 -2.3910204216 -1.8393555922
O -3.3869293132 0.9458435636 -0.0151285195
H -4.0289555130 0.8205611688 0.6930364277
H -3.8365746395 1.4941164873 -0.6682906208
O 1.5100468057 2.7625622941 1.5681235736
H 1.7989840116 3.5823595279 1.1512362121
H 1.6051934769 2.9147729594 2.5152400988
O 2.0527234769 0.2957349942 0.4503414301
H 2.0918982371 1.1731373540 0.8805214757
H 2.9441365014 -0.0613413334 0.4056089798
O 0.6218841188 0.2422447389 -2.1583747520
H -0.0388986892 0.3251607835 -2.8531764340
H 1.3510773143 0.8215259949 -2.4011019795
O -1.6600162057 -1.0724991865 -0.7733646599
H -2.4333222487 -0.4998385040 -0.5988760883
H -1.9652831587 -1.8712107826 -1.2127174435
O 0.0715844775 -1.6131887322 1.5852257205
H -0.7360192880 -2.0357620368 1.8940914052
H 0.6451967206 -1.5213074080 2.3525426010
25

Mg 0.7938888219 -0.1874988048 0.0682160796
O -0.4655567891 -1.4744491897 -0.9777216787
H -0.3222674915 -2.4023969030 -1.1856753471
H -1.4205362528 -1.3619833718 -0.8046398516
O 2.0746285340 1.1291217093 1.0809317290
H 2.7597601748 0.9035192014 1.7186277204
H 1.9900925915 2.0882133975 1.0828811266
O -2.8976243555 2.0000213799 -0.7054775264
H -3.3034400826 2.1877584935 -1.5601956598
H -3.2409806945 2.6785163468 -0.1122952617
O -2.8664437079 -0.7135798459 0.1729136422
H -3.1917296149 0.1494512980 -0.1327510380
H -3.6378551682 -1.2634519138 0.3478147392
O -0.5933164441 -0.2252357273 1.6061778553
H -1.5179560376 -0.4475083277 1.3780311765
H -0.5872522164 0.2109357347 2.4625673972
O -0.1298753659 1.4825742901 -0.7793142358
H 0.1960916993 1.8790271476 -1.5930408622
H -1.0739253279 1.7298460834 -0.7116290071
O 2.1608304107 -0.2513418468 -1.5306931490
H 2.0034444892 -0.6445397040 -2.3956598610
H 3.0380651715 0.1448436824 -1.5597321850
O 1.8316777528 -1.7643104730 1.0049220427
H 1.4788049453 -2.2483821461 1.7591595844
H 2.6077348704 -2.2464403867 0.7017112532
