28

Cs -2.2793808460 -0.7169168734 -0.9905935659
O 1.9539925577 -2.0290340224 -0.6351299731
H 2.8391415755 -1.6527052931 -0.7490076701
H 1.8577915061 -2.1730511062 0.3230337586
O 2.0870826843 3.3148262368 0.9934541778
H 2.3385643730 4.1801911389 1.3214862084
H 2.4061475510 3.2492660779 0.0831394383
O 1.3691715903 -1.9311830679 2.1503311492
H 1.5706935667 -0.9790749540 2.2263261151
H 1.7588114875 -2.3627378900 2.9144088926
O 2.6749812470 2.1046734193 -1.6059821209
H 2.7484922948 2.5000321927 -2.4778309872
H 1.8353261688 1.6069768341 -1.5822218198
O 2.0868721969 0.6364393553 1.5658478195
H 2.9043361065 0.4408423304 1.0785556253
H 2.0981636582 1.6005889273 1.7009319315
O -1.1876229131 -2.5877823885 1.0347969602
H -0.9008725609 -3.2721620997 0.4206105508
H -0.4150405354 -2.4100567476 1.5927588316
O 0.5841672250 0.4136179093 -0.8376616416
H 0.8666116515 0.6557603432 0.0638327280
H 1.0162427016 -0.4578125525 -0.9371891435
O 4.0503117852 -0.0380051931 -0.4165586391
H 3.8140740661 0.7299600594 -0.9670782241
H 5.0090446173 -0.0639587434 -0.3702917149
O -0.3713709135 -3.0399795865 -1.8656517881
H -0.3357810032 -3.7545877830 -2.5053876613
H 0.5501914767 -2.8468253079 -1.6258342675
28

Cs 0.8156058964 -1.0349367117 0.3125426108
O 0.6346477835 3.3033181677 -0.8256898518
H 0.7551780539 4.2438086141 -0.9754983808
H -0.3095441439 3.0983435144 -1.0064590917
O -0.9132367998 0.4709938031 2.6129704682
H -0.1922505786 1.1128778929 2.4581257702
H -1.0739282228 0.4634670001 3.5595505287
O 2.2589325886 1.1732024498 -1.5622792745
H 2.5347696328 1.1462709679 -2.4814024435
H 1.7404636526 1.9935055916 -1.4554664548
O 1.1363623323 1.9256362116 1.5984845725
H 2.0796924331 1.7062031204 1.5810360715
H 0.9916602563 2.5766672346 0.8936278387
O -3.0323376990 1.4395320880 0.9781997295
H -3.5542001564 0.6683417377 0.7208631636
H -2.3706584987 1.1154428022 1.6133414313
O -1.9040918336 2.4199870446 -1.2316213086
H -2.3546041095 2.1594272721 -0.3876689622
H -2.5290102604 2.9561049262 -1.7256383525
O -1.5750428753 -0.4797866036 -1.4131553451
H -1.6661042302 0.4641936287 -1.6081699317
H -2.4681018674 -0.7642112559 -1.1805232211
O 3.5359781013 0.6244755613 0.8413531125
H 3.4381457592 0.8985521622 -0.0857501288
H 4.4681404459 0.6887546474 1.0606620212
O -4.3311687298 -0.9037808518 -0.3117435156
H -4.5991430377 -1.6821359584 0.1844602429
H -5.0801382631 -0.6956483252 -0.8776893531
28

Cs 2.0799902704 0.1267094832 -0.1210019608
O -3.8617216685 -0.4237418109 -0.9253479343
H -3.2184540114 -0.5401340923 -1.6392828986
H -3.7692477236 -1.1964565313 -0.3494452883
O -3.0661947365 -2.4725291153 1.0414818617
H -2.1749686187 -2.6773809986 0.7294566705
H -3.4846010459 -3.3096538451 1.2575014901
O 0.2177366202 1.4085995372 -2.3191206690
H -0.1955171450 1.8932033733 -1.5644839625
H 0.3726581554 2.0590882638 -3.0088556638
O -0.5631402344 -1.3501231691 -0.0213487974
H -0.9273728853 -1.2732571679 -0.9193894265
H -1.0953704140 -0.7561324590 0.5377594572
O -1.9767723245 0.0461523907 2.0250016083
H -2.6168409062 0.6962714005 1.6774553364
H -2.4821526208 -0.7503078796 2.2300524310
O 0.4616691507 1.2690544002 2.2623281679
H -0.3673180088 0.7772368101 2.4207668354
H 0.6783070357 1.7045744187 3.0903924236
O -0.7912393412 2.4703426471 -0.0867778951
H -0.3870880456 2.3212286891 0.7793869561
H -1.7518105733 2.3826944547 0.0484815603
O -1.5297755496 -0.7352687356 -2.6090746277
H -0.9665527299 0.0559716672 -2.7090303884
H -1.5347458724 -1.1898710109 -3.4545243153
O -3.4462652007 1.7940338721 0.4833887537
H -4.2087058059 2.3617454311 0.6142808263
H -3.7203278375 1.0484499826 -0.1051280519
28

Cs -2.1502885076 -0.2568561424 -0.8704575841
O -0.5577512819 -1.2693068471 1.3636491662
H -0.1942899736 -2.0449982300 0.9144417861
H 0.1129306772 -1.0322432613 2.0202184821
O 3.7000601955 -0.2251166782 -1.6477622529
H 4.5037427402 -0.3539327909 -2.1566204204
H 3.7282309636 0.6871462667 -1.2944199793
O 1.9422475367 -0.6581064251 2.6730186095
H 2.4019569153 -1.1430309677 1.9415108993
H 2.3090088363 -0.9768912428 3.5008004586
O 0.9075992845 -0.4475548960 -2.0555770879
H 0.7951099126 0.3094876573 -1.4526523553
H 1.8578971663 -0.4334956562 -2.2559464424
O 2.9359924367 -1.9109522611 0.5487128372
H 2.2267605269 -2.4252774678 0.1390734900
H 3.3196239615 -1.3814106685 -0.1693252105
O 1.8079257638 1.8818640133 1.7940154987
H 1.6827398472 2.5272394570 2.4938347342
H 1.9049607733 1.0035313719 2.2293376185
O 3.3927368959 2.2670840842 -0.5103219055
H 3.0326100879 2.2028117414 0.3901599414
H 4.0750782906 2.9418092783 -0.4869812287
O 0.1693253973 1.7442795857 -0.4564622165
H 0.4965685621 2.5024226519 -0.9501233193
H 0.6396088815 1.7869224295 0.3995510090
O 0.4696594067 -2.8261534678 -0.7878794745
H 0.6492216137 -2.0582765208 -1.3706558643
H 0.4915428282 -3.6201062326 -1.3267599695
28

Cs -2.5882738930 0.2416662750 -0.4418107622
O 2.4624550736 -2.6175219611 -0.2144432266
H 3.1454011989 -1.9320757082 -0.2809054778
H 2.1381334938 -2.5859557418 0.6967336868
O 2.8337522451 3.3189875994 0.9480543042
H 3.7030161934 3.5254133385 1.3041743341
H 2.3374881140 4.1398324588 1.0113748413
O 1.0702228041 -1.9389269166 2.2648918351
H 1.3484920639 -1.0076277583 2.2314098030
H 1.2214983837 -2.2494607693 3.1604916013
O 3.0128889755 1.7237787295 -1.6522093925
H 2.0962827865 1.4270275622 -1.7564381805
H 2.9691195000 2.4371529198 -1.0035818278
O 1.9833960334 0.5165542007 1.3278352394
H 2.8344452584 0.2232917910 0.9501429004
H 2.1066939173 1.4616322161 1.4902124194
O -1.1932045407 -2.1311306019 0.5079234169
H -0.7391782395 -2.4601268452 -0.2822891057
H -0.5361653753 -2.1930032875 1.2180514265
O 0.4078611975 0.4688063606 -1.1099252591
H 0.8803821634 0.3946398881 -0.2615375122
H 0.4681583672 -0.4183191663 -1.5110590426
O 4.1311667191 -0.2981758525 -0.2408743716
H 3.8876701124 0.3988508691 -0.8917015136
H 5.0888251264 -0.3499694617 -0.2118409308
O 0.4141925028 -2.2453383685 -1.8642642346
H 0.4593239295 -2.7358071088 -2.6877743304
H 1.2278422361 -2.4726673353 -1.3486455870
