28

K 0.7807933631 1.1190814306 0.6269100952
O -3.1030250491 -0.7852051291 0.5300016431
H -2.5073270335 -1.5573634147 0.5680719049
H -3.9722928223 -1.0904552996 0.8016142866
O 3.3522258217 0.9654410618 -0.1475130853
H 4.1626725874 1.4588608240 -0.2853118743
H 3.4254273901 0.1563421443 -0.6737626034
O 1.4346258286 -1.6967746002 1.2690721369
H 2.0174344002 -1.8169340241 0.4974386262
H 1.9506482384 -1.9321694159 2.0442111633
O -1.3642144759 0.7400074389 2.2138598938
H -2.1214917671 0.3267536743 1.7719172073
H -1.6924195047 1.0796435624 3.0484602735
O -0.6870889890 2.5888418042 -1.0795949228
H -1.4454800250 2.1058664821 -1.4415332834
H -0.7337329647 3.4771204326 -1.4371140293
O 2.5989547243 -1.5275283016 -1.2732094749
H 1.7329317046 -1.2827380521 -1.6499928000
H 3.0094770851 -2.1523143123 -1.8753626309
O -0.0176085138 -0.7482471976 -1.4119130286
H -0.4633357638 -1.5032671859 -0.9964852764
H -0.7101985648 -0.2871800954 -1.9081941060
O -1.0288913279 -2.6484333680 0.4387925003
H -0.2074445619 -2.4409515154 0.9264353713
H -1.0933045588 -3.6051421592 0.3905288185
O -2.5051314446 0.5691354611 -1.8933069160
H -3.1645374678 0.5582381109 -2.5905653920
H -2.9027848612 0.1386138844 -1.1161590474
28

K 1.0880061206 1.3609211965 0.7400931163
O -3.1259887782 -0.3569135804 0.0077562116
H -2.7154987532 -0.8778920284 0.7256929252
H -4.0227684808 -0.1556453770 0.2850197125
O 3.2803346070 -0.4521986555 0.6094202409
H 4.1638549342 -0.6910079251 0.8978430404
H 3.3355174485 -0.2163212524 -0.3299734246
O 0.6432989794 -1.4767690682 0.3935138477
H 0.5621830928 -1.6180471065 -0.5656166213
H 1.5855891351 -1.5467615697 0.6019138084
O -0.3706465432 0.7702675977 2.9100310784
H -0.8967981037 -0.0386241453 2.8153048161
H -0.5358254643 1.0978586646 3.7959706560
O -1.1201225549 1.5517741060 -0.7348179227
H -1.2548054793 1.5851011734 -1.6853054059
H -1.8859975228 1.0586041091 -0.4019390556
O 2.2854388434 0.5869780120 -1.7710910010
H 1.6552497019 -0.0472018039 -2.1611219631
H 2.6781254596 1.0650505488 -2.5050697457
O 0.4119150014 -1.3908045058 -2.4082723735
H 0.6121223401 -2.1317894445 -2.9856471931
H -0.5294002820 -1.1564519937 -2.5689255346
O -1.5714982000 -1.6219000189 1.9253259500
H -0.7409866868 -1.7658767065 1.4231890091
H -1.7736109744 -2.4398073409 2.3854143406
O -2.1944604912 -0.6455833824 -2.6273997156
H -2.8148698397 -0.9156884296 -3.3078321391
H -2.6632199426 -0.6943933527 -1.7760608962
28

K 0.8139629518 0.2421669434 -0.7333649963
O -1.6181836337 -0.2569647106 0.9399836076
H -2.3755008941 -0.1347502074 0.3509850989
H -1.4894664352 -1.2171406503 1.0177819149
O -0.6423187866 -2.8621138864 0.7178635403
H -0.6975250441 -2.7852023395 -0.2490680030
H -0.9199479349 -3.7519253561 0.9481695698
O -1.1560311923 2.2178416540 -1.5486749057
H -0.8424641079 2.5838348057 -0.7014395185
H -1.1830523475 2.9504849998 -2.1687833964
O -0.8627723247 -1.7499349149 -1.8824214378
H -1.6974401373 -1.2464980319 -1.9108641032
H -0.7897191079 -2.2019855077 -2.7267437126
O 1.4421736386 -0.9979454435 1.6977841790
H 1.0529347523 -0.4520154515 2.3942233611
H 0.9153652057 -1.8061196959 1.6571663580
O 3.3463462841 -0.4388428343 -0.2878455944
H 3.1604711720 -0.7690641609 0.6011266536
H 4.2802899616 -0.5809107337 -0.4510418802
O 0.3373814822 2.6214022686 0.7568795008
H 0.8914060660 3.3863672193 0.9281283521
H 0.1289977944 2.2314135570 1.6287512495
O -2.9510924681 0.0965353359 -1.5343464562
H -2.5028484348 0.9565878999 -1.6360955316
H -3.8431843508 0.1923561323 -1.8756953884
O -0.3047938908 1.0287876171 2.9155263675
H -0.6457044647 1.2489847238 3.7855101076
H -1.0232602823 0.5993087031 2.4126190876
28

K -0.7385019755 -0.6096928085 -1.0775762602
O 2.9209578639 -0.4241890393 0.3132167232
H 2.5333536112 -1.1890108347 -0.1398032771
H 3.0625820158 0.2604821245 -0.3524756577
O -3.0730479405 0.5909819108 -1.3290973591
H -3.9341341617 0.6243331061 -1.7489484903
H -3.1033971971 1.2025380538 -0.5759014365
O 3.0025939240 2.1755664165 -1.2014639396
H 3.2099387483 2.3119954570 -2.1303440614
H 3.6215757607 2.7376084051 -0.7254947567
O -0.9120187400 -3.0050896551 0.5201331101
H -1.0864396274 -2.3518212950 1.2200725783
H -1.3712865536 -3.8118994532 0.7622902673
O 0.3100833605 1.8159894169 -0.0078034633
H 0.7121811827 1.5577479647 0.8412691045
H 1.0272081502 2.2294981620 -0.5054880435
O -2.3063731486 2.0115245247 0.9589332411
H -1.4353356791 2.2879126025 0.6266818857
H -2.6824146966 2.7646830210 1.4207606143
O -1.0604437569 -0.5591129300 1.7237673191
H -1.7155925230 0.1476982327 1.7947233456
H -0.2495267243 -0.2085630871 2.1315272815
O 1.3709410236 -2.4722615317 -0.9513066706
H 0.7564285266 -2.9317812989 -0.3509982422
H 1.8277769405 -3.1513205448 -1.4532931027
O 1.4134582765 0.6003733166 2.2701724445
H 1.8473819791 0.8391495237 3.0919479165
H 2.0781577014 0.1574093983 1.6938557579
28

K -0.1288330109 -0.7567030304 0.6518002128
O -2.5209773760 -0.5595185054 -0.8970060330
H -2.3537825307 0.2518095874 -1.4159356202
H -3.0033319154 -1.1590274134 -1.4707078637
O 2.5486325886 1.7915637133 -0.4364323031
H 3.2993695113 2.3651053665 -0.6058644398
H 2.8690273994 1.0319928010 0.0822641554
O 1.6629389528 -2.3197891430 -0.9849793743
H 1.4570460517 -1.6608775791 -1.6723060443
H 1.8906671479 -3.1412111381 -1.4253525961
O -0.1605477208 2.0829434908 0.2874063269
H -0.3649076170 2.1523018869 1.2306589627
H 0.7894992676 2.2441384372 0.1752663654
O 0.8921483312 0.0737191365 -1.9868323942
H 0.1315204073 0.5358850705 -2.3638825864
H 1.5242129499 0.7658445887 -1.7386220311
O 2.7417579970 -0.6427674878 0.9072246209
H 2.6963003508 -1.3726560965 0.2631797186
H 3.3822123545 -0.8967435852 1.5759840610
O -0.7663646430 1.0626821112 2.8357278384
H -0.6581970071 1.3503050660 3.7446286053
H -1.6526967845 0.6741582164 2.7583891220
O -1.5173539294 1.7172057864 -2.0410563955
H -1.1467053757 2.1068621804 -1.2252491451
H -1.9104767422 2.4287336973 -2.5516643620
O -2.7984602264 -0.5624672876 1.8567930930
H -3.5616616094 -0.9404735963 2.2991586095
H -3.0299960319 -0.4859431118 0.9154936095
