28

Na 0.7392461951 -0.2443607146 -0.2306254621
O -0.8039803976 -0.8698439577 1.5501087484
H -0.8723691664 0.0142312512 1.9811727239
H -0.6018185409 -1.5156751584 2.2304301295
O -1.1415454635 -2.2543582968 -2.4440339330
H -1.5575550228 -2.8283424150 -3.0915645523
H -1.8410859040 -1.9629296181 -1.8296694925
O -0.9415595385 1.7294202577 2.1566661961
H -1.0555686590 1.9977033577 1.2343146107
H -0.1952034959 2.2371506988 2.4988473321
O -1.1448109122 1.2838607675 -0.6506072280
H -1.9065788871 0.6900642876 -0.7397815683
H -0.9118731673 1.5486163439 -1.5462270675
O 0.9956950333 -2.5240599971 -0.6227808192
H 0.3559211954 -2.7794263234 -1.3041256843
H 1.6154873679 -3.2493176877 -0.5301226287
O 0.5506321788 0.0152747904 -2.6376688541
H 1.1967764769 0.1136181704 -3.3399967856
H 0.0060966771 -0.7545198243 -2.8699887664
O 2.3436031064 1.0429711226 0.8104388541
H 3.2845876471 1.0752789730 0.6273303054
H 2.1904829326 1.6783658182 1.5260938560
O -2.6935888514 -1.0887422309 -0.4337179152
H -2.1853280528 -1.1661889047 0.3983975516
H -3.6193057628 -1.2221501196 -0.2156632152
O 1.6659359353 2.9096784305 2.9126120369
H 1.7995066089 3.8536456054 2.7863173047
H 1.9460091885 2.7281533053 3.8145888729
28

Na 1.4385823965 -0.2449050537 -0.5063219571
O 1.3834245511 1.8571550685 -1.4992456465
H 0.8255239914 2.4483605298 -0.9684686475
H 2.0391929145 2.4116709134 -1.9259196937
O -1.6040400626 -2.6741907345 -0.2334251975
H -2.2144281987 -3.3971957023 -0.3966035800
H -1.9622758945 -2.1542625559 0.5106501755
O -2.5463290322 1.2542611501 -0.4187822740
H -1.9933645623 0.7113054662 -1.0189429549
H -3.3424635010 1.4833563412 -0.9057175601
O 1.2155068559 -2.5469684947 -0.4001403566
H 1.8276600243 -3.1738990921 -0.0102126219
H 0.3228526502 -2.8781551650 -0.2259209063
O -0.8002436403 -0.4652153116 -1.6879656413
H -0.6817718622 -0.4710456240 -2.6415372022
H -1.1287824533 -1.3471742600 -1.4302055452
O 0.3713308239 0.5054267641 1.4707072580
H -0.4375323520 0.0611458556 1.7588976081
H 0.1292669020 1.4357705235 1.3496959911
O -2.2995738631 -0.6950628768 1.5969376118
H -2.6267482798 0.0213967890 1.0236438095
H -2.8780642768 -0.7339368794 2.3627901152
O -0.4671683876 2.9923081703 0.3301716871
H -0.6073766799 3.8910868422 0.6369644677
H -1.3323245471 2.6360494955 0.0651442359
O 3.1228612301 -0.1139910571 1.0856393099
H 2.5693535397 0.1190891275 1.8390281953
H 4.0312226524 -0.1052049202 1.3913895425
28

Na -1.3639044806 0.0774927665 0.1047856936
O 1.4635401241 -0.3738223975 -1.8486630607
H 1.6971981558 0.5424057424 -1.6424142144
H 0.5472254998 -0.3798087578 -2.1577037228
O -1.3676173317 -0.9535287453 -2.1031565389
H -1.8794095166 -1.0110197951 -2.9131279966
H -1.3304368765 -1.8413646541 -1.7226236756
O 2.5490767935 0.2206618520 1.6964536457
H 2.5400998802 -0.6563560894 1.2616598504
H 3.2386468489 0.1984628880 2.3643961897
O 2.0698340506 -2.0100378917 0.1443967159
H 1.9405897801 -1.4854080122 -0.6851382280
H 2.6752045633 -2.7267185852 -0.0616345409
O -0.6231273790 2.0772221455 -0.8039709886
H -0.9805207203 2.8044500552 -1.3159640259
H 0.3031092682 2.3004264788 -0.6152074729
O -3.5854509099 0.2251172928 0.8079352871
H -4.2644556700 0.8203936988 0.4819477146
H -3.9890600760 -0.2490480330 1.5386626786
O -0.2399044272 0.5060011606 2.0860619599
H 0.7285857850 0.4748599808 2.1431851780
H -0.5243351447 1.1551004640 2.7326478375
O -0.7175290540 -2.2820490596 0.2366309443
H -1.0950087308 -2.9221172661 0.8437772571
H 0.2504091005 -2.3560691134 0.3306204457
O 2.1600894658 2.0251696387 -0.4248293549
H 2.4310979445 1.5340197740 0.3717310112
H 2.8446366464 2.6746098132 -0.6017833986
28

Na 0.6442154659 -0.9383724827 0.4510033209
O 0.9696316348 1.3817772046 1.3489777268
H 1.8762305585 1.5576451124 1.0722424834
H 0.4222077935 2.0283011160 0.8777582515
O 0.2309838194 0.3895775944 -1.5188592435
H -0.2015071749 1.2283718469 -1.2841013921
H -0.4070478589 -0.0687642021 -2.0806150783
O -1.0443217487 2.5711738566 -0.2844802150
H -1.8559820191 2.1185115212 0.0028191949
H -1.2845674072 3.4635580619 -0.5444797034
O 2.9110616693 1.1796431264 -0.9362743519
H 3.5386771627 1.6421491465 -1.4965280678
H 2.1438071285 0.9654415848 -1.4889419303
O -2.8598857806 0.5971046616 0.5438869030
H -3.7343865522 0.7171312271 0.9237528838
H -2.3063105606 0.2023722766 1.2433196721
O -2.3524820957 -0.9324020876 -1.8601235901
H -2.7357406388 -0.4250147246 -1.1263327400
H -3.0559539374 -1.0892095625 -2.4942718583
O -0.6675775171 -2.6096511152 -0.3942953146
H -1.3471364030 -2.2814321841 -1.0054696421
H -0.6406702219 -3.5627936870 -0.4920062383
O 2.9071494710 -1.1882363639 0.4928251880
H 3.6277065719 -1.7899057414 0.6841783230
H 3.2671714016 -0.4528564722 -0.0283814892
O -0.8643998921 -0.3742093927 2.3054624157
H -1.0375724731 -0.8404941485 3.1272449292
H -0.2550253318 0.3534145256 2.5059324330
28

Na 1.3184916429 -0.5398730706 0.5646827436
O 1.7281394337 0.5269902937 -1.4440704629
H 2.4182014052 0.4296588130 -2.1018250152
H 1.2282603354 1.3273024356 -1.6687582595
O -1.2636549253 -1.8796630548 -1.4763509523
H -1.8176249936 -2.5873563699 -1.8171040043
H -1.2748782561 -1.9578580008 -0.5029428051
O -2.5171613033 0.7538729035 1.2748205666
H -2.6677982561 0.8393893376 0.3166628547
H -3.3285792212 1.0087192174 1.7200304485
O 1.4414534145 -2.5848305877 -0.5526280189
H 2.0915916815 -3.2297406519 -0.8375903930
H 0.7620799495 -2.5525502914 -1.2382227651
O -2.3132389845 0.7216321277 -1.5496965304
H -3.0529458383 0.8065492338 -2.1573552455
H -1.9530014148 -0.1793707586 -1.6812890378
O 0.2528946925 1.5650131737 1.1648681989
H -0.6693776674 1.5055888566 1.4473617339
H 0.2367289967 2.1711737196 0.4107671530
O -0.8866045636 -1.4762366222 1.2237275280
H -1.5444821107 -0.8014313200 1.4734320122
H -0.8809377993 -2.1415709455 1.9164617484
O -0.1601967597 2.5785620151 -1.5027527266
H -0.2471658447 3.4210365869 -1.9542147227
H -0.9706815056 2.0691112245 -1.6734023084
O 2.3506070588 0.1907950436 2.4805408914
H 1.9157904612 1.0487124600 2.5440689910
H 3.0423810031 0.1694057476 3.1433821318
28

Na 1.3948616278 0.0598295673 -0.3025067439
O 1.2914649166 2.0629903830 -1.5068675175
H 1.9365405348 2.6051207933 -1.9648678789
H 0.6871072497 2.6736628367 -1.0552530249
O -1.5165479581 -2.8406537319 -0.8247120937
H -2.0198341188 -3.5732734330 -1.1867236020
H -1.9980580835 -2.5052424805 -0.0487487288
O -2.4008912667 1.0499085878 -0.2798072195
H -1.8267712855 0.5826323700 -0.9208877234
H -3.2646798658 1.1302247065 -0.6934599025
O 0.7027681221 -1.9250790963 0.8601857409
H -0.0490987417 -1.6160792026 1.3842389446
H 0.3307292294 -2.6390303415 0.3296261987
O -0.5610055282 -0.4347205800 -1.7201712569
H -0.4263857661 -0.2559351045 -2.6545189637
H -0.8858053514 -1.3537953063 -1.6350640768
O 0.5829552796 1.1435462747 1.6023906152
H 0.9943183222 1.2035143277 2.4666977125
H 0.2107909711 2.0173646918 1.4069109232
O -2.1407155888 -1.2815580242 1.3982177266
H -2.6616824941 -1.3805181307 2.1985507078
H -2.3117975130 -0.3876244482 1.0584885533
O -0.6821613399 3.1988987194 0.1946263801
H -0.9935417697 4.0929836203 0.3516841393
H -1.4626850730 2.6366426267 0.0397263614
O 3.3427321400 -1.0200363209 0.2703286112
H 3.0001548750 -1.7318141159 0.8210204424
H 4.2992242058 -1.0750859371 0.3034986644
28

Na 1.0710441524 -0.3425612343 -0.3265807364
O 1.8816484971 1.6815139482 -1.2300185329
H 2.3007360811 1.8997996262 -2.0644294271
H 1.2867830102 2.4288633718 -1.0087540403
O -1.6432710556 -2.8957327009 -0.4968954467
H -2.2805235472 -3.5563534495 -0.7776162352
H -1.8533239758 -2.6563224457 0.4337219301
O -2.1367065560 1.7262333007 -0.2080433284
H -1.9672360757 0.9855911800 -0.8186225940
H -3.0884428772 1.8222863940 -0.1276487265
O 1.1445236957 -2.6170888259 -0.5303080533
H 1.7664523794 -3.3185372307 -0.3301262172
H 0.2602296727 -3.0164687413 -0.5397435500
O -1.0647750383 -0.4475759924 -1.5999031445
H -1.0375366176 -0.4526188492 -2.5600511314
H -1.4047735651 -1.3267918442 -1.3314235811
O -0.3270427728 0.4280777310 1.4584449687
H 0.3153325098 0.9152970636 1.9846723178
H -0.9880705493 1.0658667939 1.1388173887
O -1.9428993653 -1.8250034195 1.9405211244
H -1.3472487708 -1.0627146346 2.0206135103
H -2.0980575127 -2.1650524950 2.8236723196
O 0.0595430027 3.4599417212 -0.3167405731
H -0.0041201868 4.4153799838 -0.3725279038
H -0.8410399248 3.1046840422 -0.3730588033
O 2.6706839561 0.5262163598 1.2188423030
H 2.9595667523 1.2311206484 0.6267228880
H 3.4176144865 0.3104537997 1.7810409473
28

Na 1.2861957290 -0.5110848071 0.5182533424
O 1.3497231954 1.7970810607 0.0840054579
H 2.0851586197 2.3817877861 -0.1088169651
H 0.7810934236 2.2623217564 0.7177156929
O -1.0519958665 -1.3648930696 0.6413438730
H -1.1037294656 -1.8178837182 1.4879066529
H -1.6291640623 -0.5818276175 0.7249602382
O -1.9753350047 0.8155342922 -2.1573934156
H -1.9898352291 -0.1374554812 -2.3481859278
H -2.3779639362 1.2623689312 -2.9054561985
O 3.1234233854 -1.6615885462 -0.2346597967
H 3.9770463342 -2.0768198030 -0.1005141431
H 2.9940730113 -1.5834773688 -1.1859476040
O -1.4735426859 -1.9348916119 -2.0627028780
H -1.8294172264 -2.7421266728 -2.4409830959
H -1.4577474760 -2.0431469892 -1.0963201914
O 0.7577943687 -0.0769329907 2.7759028812
H 1.2469438561 -0.1487028090 3.5979133115
H 0.3076462072 0.7826334591 2.7956580138
O -2.5161411811 1.0187672991 0.4820765788
H -2.4094633279 1.0834888618 -0.4942007140
H -3.4604502708 1.0403871466 0.6572431353
O -0.6051422275 2.3158171174 2.0346142144
H -0.8575323119 3.1088984866 2.5133008154
H -1.3910145942 2.0168290944 1.5403156876
O 1.0369698874 -0.5983897799 -1.8619059321
H 0.8198491143 0.3072109234 -2.1034978245
H 0.2973081260 -1.1352413641 -2.1814917038
28

Na 0.1918195475 0.5861844714 -0.5448592281
O -0.5884027692 -0.9475447385 1.3035818338
H -1.5024197754 -0.7123235303 1.5150283961
H -0.6378859355 -1.7727458779 0.7919124764
O -0.5043044039 -2.8221225693 -0.7859527158
H -1.0804196401 -2.2347107883 -1.3003493730
H -0.7709798916 -3.7251724476 -0.9733383010
O -1.1767596920 2.3833634260 0.5713205535
H -1.3777561114 3.2834633476 0.3032342885
H -0.3759320187 2.4330550821 1.1193149759
O -1.8032644849 -0.4197122970 -1.5408141337
H -2.4826991927 -0.2120733935 -0.8740127217
H -2.1625532188 -0.1644899859 -2.3942026817
O 1.8561719880 -1.1526630070 -0.6693202575
H 2.2640790509 -1.2225944110 0.2034523197
H 1.3647945727 -1.9751074406 -0.7991999884
O 1.4819059668 1.0257853160 -2.4130807593
H 2.1015001852 0.2959648549 -2.2961999607
H 1.7667458661 1.5182110760 -3.1845645268
O 1.4455156000 1.7542578763 1.2088045610
H 2.1919601968 2.3397099020 1.0622098513
H 1.7771820803 1.0117053318 1.7495728139
O -3.0759869508 0.3544431582 0.8325150650
H -2.6362067319 1.2177189528 0.9129783455
H -3.9603406878 0.4434921716 1.1955105457
O 1.9734962671 -0.7224750151 2.2622378813
H 2.3420589190 -1.0499454217 3.0859255440
H 1.0273703386 -0.9499893791 2.2500119531
28

Na 1.2237932721 0.3759325863 0.2881265455
O 2.0110963748 1.7785749027 -1.3657251909
H 2.9096741184 2.0211455160 -1.5958790837
H 1.4304096767 2.1959015224 -2.0151955315
O -1.5974162944 -2.0311878367 -1.4982916234
H -2.1150093139 -2.4613560075 -2.1824076312
H -1.9918065248 -2.2743607902 -0.6430392755
O -2.4435218429 0.5742747589 1.4082979368
H -2.0816557948 0.7586543844 0.5183943771
H -3.2639413630 1.0654801551 1.4929831695
O 0.7049202020 -1.9742325920 0.3489930989
H -0.0624607622 -2.1304984648 0.9191674766
H 0.4278852229 -2.3297043425 -0.5026675398
O -0.9550684270 0.6095082987 -0.9066170081
H -0.9055319347 1.2589121265 -1.6221553335
H -1.1962431681 -0.2475276919 -1.3068708047
O 0.2088833267 0.9748363365 2.2644558635
H 0.5222607205 1.1632869767 3.1502634533
H -0.7583623423 0.9624627311 2.2969893430
O -2.0452402325 -2.1821973889 1.2518188712
H -2.3392733260 -1.2820216095 1.4819694369
H -2.4832518348 -2.7892934938 1.8525841513
O -0.2834531614 2.6206959575 -2.9310226682
H -0.3436357679 2.4174926519 -3.8689774597
H -0.6013363213 3.5239675465 -2.8424002073
O 3.1638380279 -0.7168000446 0.9455666986
H 4.0560301034 -0.7583783558 1.2929430787
H 2.8068163879 -1.6112968873 0.9752350063
