2

Cs 0.29999999999999993 0.0 0.0
Br 2.8139594843999998 0.0 0.0
2

Cs 0.2499999999999999 0.0 0.0
Br 2.8639594843999996 0.0 0.0
2

Cs 0.2000000000000002 0.0 0.0
Br 2.9139594843999994 0.0 0.0
2

Cs 0.1499999999999998 0.0 0.0
Br 2.9639594843999997 0.0 0.0
2

Cs 0.0 0.0 0.0
Br 3.1139594843999996 0.0 0.0
2

Cs -0.2000000000000002 0.0 0.0
Br 3.3139594843999998 0.0 0.0
2

Cs -0.2999999999999996 0.0 0.0
Br 3.4139594843999994 0.0 0.0
2

Cs -0.35 0.0 0.0
Br 3.4639594843999997 0.0 0.0
2

Cs -0.3999999999999997 0.0 0.0
Br 3.5139594843999995 0.0 0.0
2

Cs -0.4999999999999998 0.0 0.0
Br 3.6139594843999996 0.0 0.0
2

Cs -0.6499999999999996 0.0 0.0
Br 3.763959484399999 0.0 0.0
2

Cs -0.7 0.0 0.0
Br 3.8139594843999998 0.0 0.0
2

Cs -0.8499999999999998 0.0 0.0
Br 3.9639594843999992 0.0 0.0
2

Cs -0.9000000000000002 0.0 0.0
Br 4.0139594844 0.0 0.0
2

Cs -1.2999999999999998 0.0 0.0
Br 4.413959484399999 0.0 0.0
2

Cs -1.5 0.0 0.0
Br 4.6139594844 0.0 0.0
2

Cs -1.6500000000000006 0.0 0.0
Br 4.7639594844 0.0 0.0
2

Cs -1.7999999999999996 0.0 0.0
Br 4.913959484399999 0.0 0.0
2

Cs -1.8500000000000008 0.0 0.0
Br 4.9639594844 0.0 0.0
2

Cs -1.9500000000000002 0.0 0.0
Br 5.0639594844 0.0 0.0
2

Cs -2.1000000000000005 0.0 0.0
Br 5.2139594844 0.0 0.0
2

Cs -2.15 0.0 0.0
Br 5.263959484399999 0.0 0.0
2

Cs -2.2 0.0 0.0
Br 5.3139594844 0.0 0.0
2

Cs -2.25 0.0 0.0
Br 5.3639594844 0.0 0.0
2

Cs -2.2999999999999994 0.0 0.0
Br 5.413959484399999 0.0 0.0
2

Cs -2.4999999999999996 0.0 0.0
Br 5.6139594844 0.0 0.0
2

Cs -2.6000000000000005 0.0 0.0
Br 5.7139594844 0.0 0.0
5

O -2.6765406991 -0.2578265597 0.9840238769
H -2.888724231 0.1478140304 1.8270636354
H -2.8170989459 0.4474570014 0.3081034537
Br 0.353742027 1.9430791072 -1.2215561991
Cs 0.4212571108 -0.9971852793 0.4922187565
5

O -1.2083267164 0.0854841832 2.9844040804
H -0.3794942735 -0.3799710561 3.1483173588
H -0.9670457006 1.0237810759 2.9343109565
Br -0.2388925786 2.0109512306 -0.826135906
Cs -1.2496646332 -1.1742402376 0.1765425681
5

O 1.2382844985 -1.2510139747 1.9933211423
H 1.9032274655 -1.8604067503 1.6391358168
H 1.6153565646 -0.3643126422 1.8521978587
Br -0.2388925786 2.0109512306 -0.826135906
Cs -1.2496646332 -1.1742402376 0.1765425681
5

O 3.9368781227 -0.0228026664 -0.3189617532
H 3.5955885762 0.5780835185 0.3595643135
H 3.4434318603 0.2090587844 -1.1234696002
Br -0.2388925786 2.0109512306 -0.826135906
Cs -1.2496646332 -1.1742402376 0.1765425681
5

O 0.6635111482 -2.9348176307 -1.24246315
H 0.472386105 -3.8696062076 -1.3512691304
H 0.736697167 -2.794179868 -0.2700391772
Br 0.7272996884 -1.9036470881 1.8095630692
Cs -1.237302826 -0.1880992641 -0.3889798657
5

O 2.6100730418 0.0978396335 0.0647815967
H 3.1562985463 -0.5180418087 -0.4416857032
H 2.1381988925 -0.4651512766 0.7157946326
Br 0.7272996884 -1.9036470881 1.8095630692
Cs -1.237302826 -0.1880992641 -0.3889798657
5

O 2.9249789792 -1.6798178259 -2.2650679254
H 3.5753715611 -2.2699629047 -2.6506573901
H 2.1904823902 -2.2439524938 -1.9507442558
Br 0.7272996884 -1.9036470881 1.8095630692
Cs -1.237302826 -0.1880992641 -0.3889798657
5

O 2.1220613672 2.9372084327 0.5355225373
H 2.2077572067 3.2626349115 -0.3707870222
H 2.5077154762 2.049810313 0.5212843467
Br 0.7272996884 -1.9036470881 1.8095630692
Cs -1.237302826 -0.1880992641 -0.3889798657
5

O -0.5849746996 2.7070946778 -0.142067788
H -0.4169712086 3.2074710242 -0.9487528598
H 0.2638365912 2.7952219707 0.3332605764
Br 0.7272996884 -1.9036470881 1.8095630692
Cs -1.237302826 -0.1880992641 -0.3889798657
5

O 0.8109678725 -2.1568268715 -1.0329396911
H 1.2559508817 -1.5904979009 -1.6819362647
H 1.5021083465 -2.3518615598 -0.3801693814
Br -0.1406654714 2.1562249468 -1.5307964267
Cs -1.6929327801 -0.6777961474 -0.3733604723
5

O 2.0106728523 -0.0092157145 -2.5476363657
H 2.2878770105 0.1456812322 -3.4535391185
H 1.3518931289 0.6927848001 -2.3436605735
Br -0.1406654714 2.1562249468 -1.5307964267
Cs -1.6929327801 -0.6777961474 -0.3733604723
5

O 0.9146723807 1.3845614088 3.2757555276
H 1.0551404915 1.9873621817 4.0087707688
H 1.2708523259 1.8321962867 2.4848375
Br -0.1406654714 2.1562249468 -1.5307964267
Cs -1.6929327801 -0.6777961474 -0.3733604723
5

O 2.9052125702 -2.1297827576 0.9277982985
H 3.6835654013 -2.6830678465 1.0162268616
H 3.2094049727 -1.2545709325 0.5812271853
Br -0.1406654714 2.1562249468 -1.5307964267
Cs -1.6929327801 -0.6777961474 -0.3733604723
5

O 1.2089670474 -0.7215726287 2.4227999035
H 1.8478005025 -1.4020758196 2.1545792698
H 1.34704353 0.0164599845 1.7968198758
Br 0.0506469963 2.2188640808 -1.7511626061
Cs -1.4071264916 -0.4182735408 -0.1237659916
5

O 3.7248990176 0.1911359757 -0.1075178777
H 3.1830309941 0.8575609615 0.3415856162
H 3.3860089506 0.1785011354 -1.0185764044
Br 0.0506469963 2.2188640808 -1.7511626061
Cs -1.4071264916 -0.4182735408 -0.1237659916
5

O -1.0526401253 0.9323663109 -2.1947744019
H -1.8868436438 1.2403389173 -1.80976188
H -1.0599493761 -0.025234528 -2.0420388671
Br -0.5446685945 -1.9491030668 -0.4760342451
Cs 1.2085351244 1.1050804144 -0.1955976652
5

O -2.8281821839 -0.4313319805 1.1507157021
H -3.3616827024 -1.0478177025 1.6571316628
H -2.1586666278 -0.9814176471 0.6784148117
Br -0.5446685945 -1.9491030668 -0.4760342451
Cs 1.2085351244 1.1050804144 -0.1955976652
5

O -3.3499180742 1.6752985439 -0.5764289667
H -4.2408308123 1.8397730638 -0.8913128736
H -3.389715845 0.8668520253 -0.0312296517
Br -0.5446685945 -1.9491030668 -0.4760342451
Cs 1.2085351244 1.1050804144 -0.1955976652
5

O 2.7671511679 0.7529532808 -1.3433417681
H 3.4217912067 0.8430431998 -2.0397616823
H 2.1314811838 0.0685193118 -1.6570756117
Br 0.4796887402 -1.3801820733 -2.1481258804
Cs -1.5250392519 1.0659504777 -0.959645186
5

O 0.4572386395 -2.9965927607 0.7398645344
H -0.2838233915 -2.668586431 1.2702760757
H 0.410225664 -2.5496267627 -0.1264227479
Br 0.4796887402 -1.3801820733 -2.1481258804
Cs -1.5250392519 1.0659504777 -0.959645186
5

O 1.0184544244 -2.1355532878 -1.5305366259
H 1.7628772109 -2.4375380489 -0.9877169327
H 1.3608692537 -1.3662229133 -2.0121157509
Br -0.5832526156 1.8414968896 -1.1377485088
Cs -1.3269790386 -1.2586758247 0.1581335096
5

O 1.2284783527 -1.1641239493 2.227533156
H 1.8487510139 -1.7068755433 1.7129291134
H 1.6321782995 -0.2795427385 2.2728630275
Br -0.5832526156 1.8414968896 -1.1377485088
Cs -1.3269790386 -1.2586758247 0.1581335096
5

O 3.0587341692 -2.3965527098 0.4337607252
H 3.8124254642 -2.9695062419 0.5857368308
H 3.4164406965 -1.5058813236 0.1831720712
Br -0.5832526156 1.8414968896 -1.1377485088
Cs -1.3269790386 -1.2586758247 0.1581335096
5

O 2.0242149115 0.4285333475 -2.4251476319
H 2.2514346696 0.772069146 -3.292212348
H 1.2460746548 0.9489084371 -2.125741629
Br -0.5832526156 1.8414968896 -1.1377485088
Cs -1.3269790386 -1.2586758247 0.1581335096
5

O 3.7332782646 0.0910019227 -0.2004670359
H 3.4068337275 0.6438338099 0.5254193876
H 3.2181999988 0.3363376385 -0.9879614571
Br -0.5832526156 1.8414968896 -1.1377485088
Cs -1.3269790386 -1.2586758247 0.1581335096
5

O -0.6270392677 0.9957666219 2.6440339935
H -0.6150923388 1.6933037495 1.975085485
H 0.2877277464 0.6492131959 2.6604524854
Br -0.0826839319 2.235639796 -0.603586201
Cs -1.2159554617 -0.9734380625 0.1827585651
5

O 1.7277236288 0.4572304306 -2.6670167131
H 1.7068811797 0.8269532396 -3.5529391991
H 1.1582942461 1.0414038579 -2.121354549
Br -0.0826839319 2.235639796 -0.603586201
Cs -1.2159554617 -0.9734380625 0.1827585651
5

O -0.0204249703 2.749789284 1.150559599
H 0.6999141668 3.1415814058 0.6418826842
H 0.4726190535 2.2192919369 1.809454593
Br 0.7096357857 -1.5714277224 0.6373019511
Cs -1.8026276384 0.6407906782 0.1177008285
5

O 3.048814929 -1.8316511106 0.4984986343
H 3.7517902031 -2.4410666456 0.7343110637
H 3.4761576599 -1.0858291097 0.0038884662
Br -0.0826839319 2.235639796 -0.603586201
Cs -1.2159554617 -0.9734380625 0.1827585651
5

O 2.400866307 -1.1514542494 -1.2334893317
H 1.9875390065 -0.3942140933 -1.6770034406
H 1.9734824991 -1.2010815978 -0.3558439921
Br 0.9702262617 -1.0138345743 1.7710179555
Cs -0.9627580402 1.0044243952 -0.1902033912
5

O 1.1588854796 1.1655342709 -2.4897484108
H 1.4350149843 1.2696990396 -3.402646697
H 1.527515683 1.9141930561 -1.9810894105
Br 0.9702262617 -1.0138345743 1.7710179555
Cs -0.9627580402 1.0044243952 -0.1902033912
5

O -0.9936384556 1.7716391365 -2.1971435182
H -1.2446665758 2.1146959142 -3.0572597322
H -1.522517695 0.9588627997 -2.0659723515
Br -2.2567454046 -1.0270951618 -1.1001091841
Cs 0.8978901616 0.2106265741 -0.1064741845
5

O -3.0760155566 0.8525747543 1.4127950912
H -4.0145846191 0.9854114179 1.5648150753
H -3.0085937654 0.3379450178 0.579480477
Br -2.2567454046 -1.0270951618 -1.1001091841
Cs 0.8978901616 0.2106265741 -0.1064741845
5

O 1.3302006562 -1.126527088 2.5409250834
H 1.6874127712 -1.4986212092 3.3484209284
H 0.3648113558 -1.2851463165 2.5652662416
Br -2.2567454046 -1.0270951618 -1.1001091841
Cs 0.8978901616 0.2106265741 -0.1064741845
5

O -0.900686025 2.5445239304 0.5853517097
H -1.1213402342 2.6073567449 -0.3544075025
H -1.7020363102 2.1892045032 0.9983345636
Br -2.2567454046 -1.0270951618 -1.1001091841
Cs 0.8978901616 0.2106265741 -0.1064741845
5

O 0.0873805839 -1.9260437523 1.683932775
H -0.485723997 -1.497624529 2.3330675715
H -0.5677795316 -2.3128163163 1.0737299591
Br -1.6099468125 1.6672020785 -0.0931409217
Cs 1.4198961104 0.1528119071 0.0351304418
5

O 0.5041593349 -1.9785014177 -1.9410526438
H 0.3674425843 -2.8944714416 -1.6864979184
H -0.3845497361 -1.6478372218 -2.1642891636
Br -1.6099468125 1.6672020785 -0.0931409217
Cs 1.4198961104 0.1528119071 0.0351304418
5

O -2.3446846671 -0.4445814297 2.3106309452
H -2.9843052983 -0.0607548168 2.9144387615
H -2.1626816281 0.2526247403 1.6471154344
Br -1.6099468125 1.6672020785 -0.0931409217
Cs 1.4198961104 0.1528119071 0.0351304418
5

O 1.7584228832 2.1721810967 -0.5993884702
H 1.4292160411 2.059753955 -1.5021450895
H 2.5216971714 1.5739058912 -0.5207414729
Br 1.4305380563 -2.0699760231 0.4985735453
Cs -0.9343296464 0.4171395387 -0.061505265
5

O 1.7289366186 0.2192656513 2.8649355179
H 1.7456318788 -0.1817481663 3.7363323974
H 1.6975196041 -0.5244599565 2.2337285101
Br 1.4305380563 -2.0699760231 0.4985735453
Cs -0.9343296464 0.4171395387 -0.061505265
5

O 1.7119073687 1.0974691309 2.5556995892
H 2.3789922564 1.4573780608 1.9546253259
H 1.5352753741 0.205372356 2.2185135505
Br 0.7096357857 -1.5714277224 0.6373019511
Cs -1.8026276384 0.6407906782 0.1177008285
5

O 0.3887815491 1.0285420446 -2.8521538094
H 0.2384123447 1.2831530945 -3.7646179027
H 1.0231144433 0.2720575715 -2.8770658755
Br 1.4305380563 -2.0699760231 0.4985735453
Cs -0.9343296464 0.4171395387 -0.061505265
5

O 0.5678264627 2.5995779876 1.9279579823
H 1.0518809102 2.6888063762 1.0914010921
H 0.9960064625 1.8558515147 2.386265251
Br 1.4305380563 -2.0699760231 0.4985735453
Cs -0.9343296464 0.4171395387 -0.061505265
5

O -2.1412868874 2.574996622 1.6747281495
H -2.6648987928 3.2391914231 2.1248154669
H -1.206292382 2.748150015 1.9080376082
Br 1.4305380563 -2.0699760231 0.4985735453
Cs -0.9343296464 0.4171395387 -0.061505265
5

O 1.7059498645 -1.1066122584 -2.8307903768
H 1.8880454166 -0.3245846541 -2.2829649906
H 2.4816492178 -1.6812139636 -2.6957546302
Br 2.0729479941 1.0040956038 -0.202032976
Cs -1.273423519 0.1367815764 0.0959248451
5

O -3.0766278286 -0.0240990922 2.5059497812
H -3.9345570572 -0.2542901199 2.8661336437
H -2.4535094819 -0.0483861639 3.2610328143
Br 2.0729479941 1.0040956038 -0.202032976
Cs -1.273423519 0.1367815764 0.0959248451
5

O -1.0510996098 -0.1784762839 4.3383914199
H -0.7824194588 0.4312915553 5.0277248003
H -0.2654072938 -0.3251413825 3.7755117827
Br 2.0729479941 1.0040956038 -0.202032976
Cs -1.273423519 0.1367815764 0.0959248451
5

O 0.9951144638 -0.3534057738 2.5570382182
H 1.7625359928 0.2135802601 2.3844678408
H 1.067976464 -1.0739048377 1.9071343139
Br 1.0864962023 -2.0637144432 -0.3107495744
Cs -1.2319230099 0.4754748201 -0.0227479251
5

O 1.3388360772 2.3406067492 -0.3223583354
H 1.3127027705 3.2042383985 -0.7407517689
H 1.6243687555 1.705737343 -1.0240341072
Br 1.0864962023 -2.0637144432 -0.3107495744
Cs -1.2319230099 0.4754748201 -0.0227479251
5

O 3.0730242102 1.4117259844 1.6251175624
H 3.5616560597 2.0523784163 2.1463146378
H 2.5063716545 1.9165415426 1.0101158741
Br 1.0864962023 -2.0637144432 -0.3107495744
Cs -1.2319230099 0.4754748201 -0.0227479251
5

O -1.8170499167 -2.7485833784 0.5508270817
H -1.0705326057 -2.7028468556 -0.0661955494
H -1.5045242405 -2.3079867639 1.3583527517
Br 0.6830335224 -1.5421442326 -1.4212954708
Cs -1.56923973 0.7048705285 0.0614482782
5

O -2.3670551442 1.8519780162 0.1268984074
H -3.0539359479 2.5174369598 0.0559061472
H -1.5775786119 2.2418426703 -0.2913316776
Br 0.6630529148 2.2412006902 -1.1109628685
Cs -0.756239318 -0.7617804082 0.1163166317
5

O 1.4321348725 1.1238415258 1.7700900391
H 1.3497121045 1.762732889 2.4818177494
H 1.2771853791 1.6286883659 0.9372361854
Br 0.6630529148 2.2412006902 -1.1109628685
Cs -0.756239318 -0.7617804082 0.1163166317
5

O 2.6432342609 -0.4331262336 -1.5597638324
H 3.0757926224 -0.4578039276 -0.6917234607
H 2.2091491824 0.4360608461 -1.6100764426
Br 0.6630529148 2.2412006902 -1.1109628685
Cs -0.756239318 -0.7617804082 0.1163166317
5

O 1.3928347862 -2.7435425298 1.0827959371
H 2.2024790645 -2.2415346176 1.2522308925
H 1.4580420879 -3.0106475025 0.1550104986
Br 0.6630529148 2.2412006902 -1.1109628685
Cs -0.756239318 -0.7617804082 0.1163166317
8

O 1.0105999911 0.0105806083 3.0161615781
H 1.3157453785 0.4331554473 3.820785202
H 0.0464516057 -0.1270972416 3.142943499
O 1.0771309947 2.5613614027 -1.5723872147
H 1.4338513931 3.4467047105 -1.6601084372
H 0.1046891156 2.658952085 -1.6712679637
Br -2.1358501566 -0.2232380814 -0.1525058409
Cs 1.2093103417 0.0179236827 0.0254455757
8

O 1.8885623712 -2.1809592484 -1.5891375337
H 2.1086750175 -2.7656276136 -2.3178324441
H 1.4833644857 -1.3821914844 -1.9953079515
O 0.1757957521 -2.3076591949 0.72125704
H 0.8125383898 -2.2763484584 1.449561922
H 0.7141609654 -2.4740073448 -0.0674625977
Br 0.6238232666 0.6303300617 -2.5493708487
Cs -1.2468024533 0.3342438463 0.4085017403
8

O 0.9833292907 2.5316252553 1.2799238402
H 0.9438737699 3.477492 1.435280467
H 1.6964807233 2.3930315052 0.6244569601
O 2.8407593571 1.8019824362 -0.6255960149
H 3.4707967335 2.3607747708 -1.087465404
H 2.2023232222 1.4875243709 -1.3150528496
Br 0.6238232666 0.6303300617 -2.5493708487
Cs -1.2468024533 0.3342438463 0.4085017403
8

O 0.5390320627 0.5337473383 3.242450596
H 0.8740852643 1.2874132173 2.7337933852
H 1.1828944759 -0.1853830837 3.1207403766
O 0.1757957521 -2.3076591949 0.72125704
H 0.8125383898 -2.2763484584 1.449561922
H 0.7141609654 -2.4740073448 -0.0674625977
Br 0.6238232666 0.6303300617 -2.5493708487
Cs -1.2468024533 0.3342438463 0.4085017403
8

O 0.5678264627 2.5995779876 1.9279579823
H 1.0518809102 2.6888063762 1.0914010921
H 0.9960064625 1.8558515147 2.386265251
O 1.7584228832 2.1721810967 -0.5993884702
H 1.4292160411 2.059753955 -1.5021450895
H 2.5216971714 1.5739058912 -0.5207414729
Br 1.4305380563 -2.0699760231 0.4985735453
Cs -0.9343296464 0.4171395387 -0.061505265
8

O 0.5678264627 2.5995779876 1.9279579823
H 1.0518809102 2.6888063762 1.0914010921
H 0.9960064625 1.8558515147 2.386265251
O -2.1412868874 2.574996622 1.6747281495
H -2.6648987928 3.2391914231 2.1248154669
H -1.206292382 2.748150015 1.9080376082
Br 1.4305380563 -2.0699760231 0.4985735453
Cs -0.9343296464 0.4171395387 -0.061505265
8

O 1.7584228832 2.1721810967 -0.5993884702
H 1.4292160411 2.059753955 -1.5021450895
H 2.5216971714 1.5739058912 -0.5207414729
O 1.7289366186 0.2192656513 2.8649355179
H 1.7456318788 -0.1817481663 3.7363323974
H 1.6975196041 -0.5244599565 2.2337285101
Br 1.4305380563 -2.0699760231 0.4985735453
Cs -0.9343296464 0.4171395387 -0.061505265
8

O 1.0184544244 -2.1355532878 -1.5305366259
H 1.7628772109 -2.4375380489 -0.9877169327
H 1.3608692537 -1.3662229133 -2.0121157509
O 1.2284783527 -1.1641239493 2.227533156
H 1.8487510139 -1.7068755433 1.7129291134
H 1.6321782995 -0.2795427385 2.2728630275
Br -0.5832526156 1.8414968896 -1.1377485088
Cs -1.3269790386 -1.2586758247 0.1581335096
8

O -1.2745334687 -1.6989643159 3.1254516354
H -1.3908948342 -1.8614441824 4.0626982156
H -0.3180891605 -1.5440804215 2.9905438786
O 1.0184544244 -2.1355532878 -1.5305366259
H 1.7628772109 -2.4375380489 -0.9877169327
H 1.3608692537 -1.3662229133 -2.0121157509
Br -0.5832526156 1.8414968896 -1.1377485088
Cs -1.3269790386 -1.2586758247 0.1581335096
8

O -1.2745334687 -1.6989643159 3.1254516354
H -1.3908948342 -1.8614441824 4.0626982156
H -0.3180891605 -1.5440804215 2.9905438786
O 2.0242149115 0.4285333475 -2.4251476319
H 2.2514346696 0.772069146 -3.292212348
H 1.2460746548 0.9489084371 -2.125741629
Br -0.5832526156 1.8414968896 -1.1377485088
Cs -1.3269790386 -1.2586758247 0.1581335096
8

O -1.3912224669 1.6650751577 1.2602566792
H -0.6280148671 2.2421520772 1.3870143871
H -1.1411943281 0.8366432254 1.7043451177
O 2.5404791252 0.1217103989 1.8102522456
H 2.9646301139 -0.0848235265 2.64653231
H 1.7320251402 -0.4491392985 1.77165794
Br -0.2071947427 -1.4463676253 1.6033281452
Cs -1.3244690214 0.0007135863 -1.2503690752
8

O -0.3222332458 2.2386245847 -1.9967372489
H -0.2714081945 2.7424723027 -2.8119312413
H -0.7633297655 1.3938701549 -2.2320378113
O -1.6897273949 2.3880606144 0.5181615891
H -2.3783982232 1.7121978778 0.444383632
H -1.4542455703 2.6204145547 -0.3917572844
Br -1.555577575 -0.7457084238 -1.9875638248
Cs 0.7056722785 0.3103240161 0.3502952322
8

O -2.8810291579 -0.261726706 0.9049057176
H -3.747530924 -0.6623247245 1.0061021841
H -2.5739001127 -0.5274695978 0.0083563563
O -1.6897273949 2.3880606144 0.5181615891
H -2.3783982232 1.7121978778 0.444383632
H -1.4542455703 2.6204145547 -0.3917572844
Br -1.555577575 -0.7457084238 -1.9875638248
Cs 0.7056722785 0.3103240161 0.3502952322
8

O 0.8248053439 2.5213458179 -1.7102263549
H 1.1497575225 1.6841867911 -2.0815924161
H 0.88214651 2.4270416006 -0.7406480602
O 2.5404791252 0.1217103989 1.8102522456
H 2.9646301139 -0.0848235265 2.64653231
H 1.7320251402 -0.4491392985 1.77165794
Br -0.2071947427 -1.4463676253 1.6033281452
Cs -1.3244690214 0.0007135863 -1.2503690752
8

O -2.6349979289 -0.0575773647 1.097355509
H -3.4108155854 -0.3422804076 1.5851096969
H -2.5770603718 -0.6441627595 0.3111031707
O -0.9061512181 1.3912381206 -2.3142463924
H -0.9186702062 1.687179769 -3.2267538911
H -1.2524655335 0.4703852955 -2.3202879594
Br -1.6769634705 -1.6151625494 -1.5533966953
Cs 0.511848783 0.1984036177 0.3473936758
8

O -0.9061512181 1.3912381206 -2.3142463924
H -0.9186702062 1.687179769 -3.2267538911
H -1.2524655335 0.4703852955 -2.3202879594
O 0.4700536476 3.0097768372 1.4838438743
H 0.5995206334 3.8606970775 1.9048116826
H -0.4121281666 3.0381175847 1.0611498627
Br -1.6769634705 -1.6151625494 -1.5533966953
Cs 0.511848783 0.1984036177 0.3473936758
8

O 2.2485528409 -0.8048933264 -1.9555767509
H 2.9589039825 -0.4003794913 -1.4321655537
H 1.8367113018 -1.4393155556 -1.3399578836
O 0.5582717759 1.1474556069 -2.5716194399
H 0.539870296 1.3344131801 -3.5124668274
H 1.1906483286 0.3916041096 -2.4485860909
Br 0.8253420203 -2.2790946634 0.6669822809
Cs -1.294337289 0.2549908205 -0.2358812642
8

O 0.6647569282 2.0980777344 1.4367780786
H 1.2420284523 1.4511624659 1.870304231
H 1.1983864817 2.4638863768 0.6999949862
O 3.9690966518 0.6606889446 -0.1611472145
H 4.9201759974 0.5553448939 -0.0930485995
H 3.5924892795 0.3957783448 0.7031942618
Br 0.8253420203 -2.2790946634 0.6669822809
Cs -1.294337289 0.2549908205 -0.2358812642
8

O 2.2485528409 -0.8048933264 -1.9555767509
H 2.9589039825 -0.4003794913 -1.4321655537
H 1.8367113018 -1.4393155556 -1.3399578836
O -2.0125856894 2.6129139845 1.5350944763
H -2.3844911459 3.331641865 2.0480652877
H -1.0497445294 2.6253269838 1.6930662471
Br 0.8253420203 -2.2790946634 0.6669822809
Cs -1.294337289 0.2549908205 -0.2358812642
8

O -1.5315796049 -0.7469363992 2.7128664824
H -1.6914822318 0.203440232 2.6384483026
H -1.8738071435 -1.0917952549 1.8713354914
O -1.6256057585 1.743763629 1.231080322
H -2.0762505623 2.5799406683 1.0945918905
H -1.9962372357 1.1251021407 0.5698548028
Br -2.05072896 -0.9008102922 -0.6099180679
Cs 1.0689612939 0.2399900128 0.3870800342
8

O -1.5315796049 -0.7469363992 2.7128664824
H -1.6914822318 0.203440232 2.6384483026
H -1.8738071435 -1.0917952549 1.8713354914
O 1.1471842619 -1.2428516767 3.0101670131
H 1.4122337937 -1.7110249618 3.8031931293
H 0.1705842325 -1.1727623527 3.0463198955
Br -2.05072896 -0.9008102922 -0.6099180679
Cs 1.0689612939 0.2399900128 0.3870800342
8

O -1.6256057585 1.743763629 1.231080322
H -2.0762505623 2.5799406683 1.0945918905
H -1.9962372357 1.1251021407 0.5698548028
O -1.5158630137 1.5500278088 -2.7312285272
H -1.6626286659 1.2693641417 -3.6370488901
H -1.7771679008 0.7868697076 -2.1778452125
Br -2.05072896 -0.9008102922 -0.6099180679
Cs 1.0689612939 0.2399900128 0.3870800342
8

O 1.1471842619 -1.2428516767 3.0101670131
H 1.4122337937 -1.7110249618 3.8031931293
H 0.1705842325 -1.1727623527 3.0463198955
O 0.9008014264 2.3843445995 -1.717443549
H 1.074244545 3.2999528471 -1.9415059447
H 0.0568145724 2.1571687888 -2.1599104843
Br -2.05072896 -0.9008102922 -0.6099180679
Cs 1.0689612939 0.2399900128 0.3870800342
8

O -0.3222332458 2.2386245847 -1.9967372489
H -0.2714081945 2.7424723027 -2.8119312413
H -0.7633297655 1.3938701549 -2.2320378113
O -0.985677426 0.8061784352 2.8640548867
H -1.1823082756 1.6933832332 2.5399703879
H -1.7093859697 0.2818545358 2.4911548661
Br -1.555577575 -0.7457084238 -1.9875638248
Cs 0.7056722785 0.3103240161 0.3502952322
8

O -2.2681179849 -2.5035846899 0.2490552868
H -2.3678321452 -2.0021295707 -0.5731753154
H -2.6252021494 -1.9214912627 0.9359732009
O -2.3446846671 -0.4445814297 2.3106309452
H -2.9843052983 -0.0607548168 2.9144387615
H -2.1626816281 0.2526247403 1.6471154344
Br -1.6099468125 1.6672020785 -0.0931409217
Cs 1.4198961104 0.1528119071 0.0351304418
8

O -2.2681179849 -2.5035846899 0.2490552868
H -2.3678321452 -2.0021295707 -0.5731753154
H -2.6252021494 -1.9214912627 0.9359732009
O -2.0567347311 -0.8317745621 -2.1233916712
H -2.6691441799 -0.6728222121 -2.8451075659
H -2.0031555526 0.0088994406 -1.6170952339
Br -1.6099468125 1.6672020785 -0.0931409217
Cs 1.4198961104 0.1528119071 0.0351304418
8

O -1.328368266 -1.8324806496 3.6752826468
H -1.4423094065 -1.7842954516 4.6258141873
H -0.6950815463 -1.1204348477 3.4161447168
O 1.3838524592 2.5975195485 0.2764475728
H 1.8110964235 2.4521990794 1.132581652
H 2.0131439827 2.2388775011 -0.3688025664
Br 0.5927416581 -0.8406684357 -2.2265745471
Cs -1.2521783935 1.0833894607 -0.0850684387
8

O 2.5844863389 1.4748885765 2.6920678971
H 3.1708029132 1.7647818531 3.3933448686
H 3.0903993289 0.8214143919 2.1425151688
O 1.3168284212 -1.9271458643 0.7444418086
H 0.806384297 -2.7228877381 0.9650021816
H 1.1198058921 -1.7244994545 -0.1957547555
Br 0.5927416581 -0.8406684357 -2.2265745471
Cs -1.2521783935 1.0833894607 -0.0850684387
8

O 0.8381684333 -2.2011984072 -1.2912295582
H 1.6048519306 -2.5238510093 -0.7987733271
H 1.2079475872 -1.5735987269 -1.9314020924
O 0.7213606509 0.6265060881 2.9591170612
H 1.0351443115 -0.2840747288 2.8474790135
H 1.2789853919 1.18720531 2.3941004252
Br -0.0067582409 2.0552882328 -1.2581588609
Cs -1.2006418107 -0.7230486774 0.4424317693
8

O 2.2182594856 2.0674992229 1.0341964542
H 2.579059695 2.9462240615 1.1765254319
H 1.5234888998 2.1745364553 0.3409119405
O 0.7213606509 0.6265060881 2.9591170612
H 1.0351443115 -0.2840747288 2.8474790135
H 1.2789853919 1.18720531 2.3941004252
Br -0.0067582409 2.0552882328 -1.2581588609
Cs -1.2006418107 -0.7230486774 0.4424317693
8

O 2.2182594856 2.0674992229 1.0341964542
H 2.579059695 2.9462240615 1.1765254319
H 1.5234888998 2.1745364553 0.3409119405
O 3.6295523078 0.0140644752 -0.3617392054
H 3.264028402 0.7534741464 0.1531109903
H 3.2085315774 0.0784013356 -1.2360774673
Br -0.0067582409 2.0552882328 -1.2581588609
Cs -1.2006418107 -0.7230486774 0.4424317693
8

O 3.6295523078 0.0140644752 -0.3617392054
H 3.264028402 0.7534741464 0.1531109903
H 3.2085315774 0.0784013356 -1.2360774673
O 0.7213606509 0.6265060881 2.9591170612
H 1.0351443115 -0.2840747288 2.8474790135
H 1.2789853919 1.18720531 2.3941004252
Br -0.0067582409 2.0552882328 -1.2581588609
Cs -1.2006418107 -0.7230486774 0.4424317693
8

O 0.1049829535 -2.2375447371 1.5839339622
H 0.303882387 -2.7871156284 0.8147512983
H 0.950627348 -1.8175309404 1.8152389705
O 2.6526585962 -1.4319119505 -1.1563497724
H 2.9580422935 -1.4815219651 -0.2403196671
H 2.4115098052 -0.4916157568 -1.2436596323
Br 1.4506548167 1.5532604976 -0.3166517386
Cs -1.3032706682 -0.3562580973 -0.2681310624
8

O 2.5055417468 -0.7303205184 1.7081394739
H 3.086543243 -0.4338161711 2.4121151009
H 2.2137488966 0.0819754612 1.2368880512
O 2.6526585962 -1.4319119505 -1.1563497724
H 2.9580422935 -1.4815219651 -0.2403196671
H 2.4115098052 -0.4916157568 -1.2436596323
Br 1.4506548167 1.5532604976 -0.3166517386
Cs -1.3032706682 -0.3562580973 -0.2681310624
8

O 2.5055417468 -0.7303205184 1.7081394739
H 3.086543243 -0.4338161711 2.4121151009
H 2.2137488966 0.0819754612 1.2368880512
O 0.1049829535 -2.2375447371 1.5839339622
H 0.303882387 -2.7871156284 0.8147512983
H 0.950627348 -1.8175309404 1.8152389705
Br 1.4506548167 1.5532604976 -0.3166517386
Cs -1.3032706682 -0.3562580973 -0.2681310624
8

O 2.2734587443 0.3183943695 -1.8877685737
H 2.9269429791 0.4247747458 -1.1848100336
H 1.5978595119 0.9798737364 -1.6524714064
O -2.6336995288 1.0635834019 -1.3624482471
H -3.2490576144 1.6063506994 -1.8586613306
H -1.8881171856 1.6490227609 -1.137020062
Br 0.1956921485 2.2440792696 -0.1505860449
Cs -1.1055032903 -1.0061735904 0.2145016436
8

O 0.9627852496 -2.0403397602 -1.9333051773
H 1.0375245372 -2.4575780942 -2.7934970434
H 1.4956225229 -1.2124447322 -1.9855322655
O -2.6336995288 1.0635834019 -1.3624482471
H -3.2490576144 1.6063506994 -1.8586613306
H -1.8881171856 1.6490227609 -1.137020062
Br 0.1956921485 2.2440792696 -0.1505860449
Cs -1.1055032903 -1.0061735904 0.2145016436
8

O -2.6336995288 1.0635834019 -1.3624482471
H -3.2490576144 1.6063506994 -1.8586613306
H -1.8881171856 1.6490227609 -1.137020062
O 3.1399843163 1.1765431228 0.8285312265
H 3.6760769498 1.9356676581 1.0704060296
H 2.2364018635 1.5325922354 0.7008721265
Br 0.1956921485 2.2440792696 -0.1505860449
Cs -1.1055032903 -1.0061735904 0.2145016436
8

O 2.0824152851 -2.2463298218 0.3990601064
H 1.2813223791 -2.4710901462 -0.1020221175
H 2.2236856217 -1.3013608779 0.1850561818
O 0.8601837341 -0.5621257244 2.433130307
H 1.2629142104 -1.3864821726 2.1226089493
H 1.339435506 0.1208178269 1.9295218671
Br 2.0729479941 1.0040956038 -0.202032976
Cs -1.273423519 0.1367815764 0.0959248451
8

O 0.8601837341 -0.5621257244 2.433130307
H 1.2629142104 -1.3864821726 2.1226089493
H 1.339435506 0.1208178269 1.9295218671
O -0.1961041266 -2.3146520972 -1.4165914566
H -0.4799473891 -3.1349325832 -1.8257016516
H 0.4610052632 -1.9052196222 -2.041571395
Br 2.0729479941 1.0040956038 -0.202032976
Cs -1.273423519 0.1367815764 0.0959248451
8

O 3.6473169238 -2.910623946 -1.8754781733
H 4.5872302663 -2.7250254096 -1.8236679212
H 3.3022932456 -2.8121602214 -0.9704182138
O 1.7059498645 -1.1066122584 -2.8307903768
H 1.8880454166 -0.3245846541 -2.2829649906
H 2.4816492178 -1.6812139636 -2.6957546302
Br 2.0729479941 1.0040956038 -0.202032976
Cs -1.273423519 0.1367815764 0.0959248451
8

O -3.0766278286 -0.0240990922 2.5059497812
H -3.9345570572 -0.2542901199 2.8661336437
H -2.4535094819 -0.0483861639 3.2610328143
O 1.7059498645 -1.1066122584 -2.8307903768
H 1.8880454166 -0.3245846541 -2.2829649906
H 2.4816492178 -1.6812139636 -2.6957546302
Br 2.0729479941 1.0040956038 -0.202032976
Cs -1.273423519 0.1367815764 0.0959248451
8

O 2.0824152851 -2.2463298218 0.3990601064
H 1.2813223791 -2.4710901462 -0.1020221175
H 2.2236856217 -1.3013608779 0.1850561818
O -0.1961041266 -2.3146520972 -1.4165914566
H -0.4799473891 -3.1349325832 -1.8257016516
H 0.4610052632 -1.9052196222 -2.041571395
Br 2.0729479941 1.0040956038 -0.202032976
Cs -1.273423519 0.1367815764 0.0959248451
8

O -2.6427183688 0.9318906972 0.9785677891
H -2.7649474104 1.133972276 0.0396594881
H -2.4541781231 -0.0275372241 0.9623581251
O 0.216752817 1.8117056717 -1.7702081575
H 0.0646912519 2.6957461168 -1.4050230541
H -0.6581235221 1.4749147643 -2.0212024625
Br -1.4707189793 -1.9853253915 0.053881438
Cs 1.108858351 0.1368335345 0.531274661
8

O -2.6427183688 0.9318906972 0.9785677891
H -2.7649474104 1.133972276 0.0396594881
H -2.4541781231 -0.0275372241 0.9623581251
O -2.3191642582 0.5037832199 -1.8906240701
H -2.9488189272 0.3217738926 -2.5915014533
H -2.07681472 -0.3622064539 -1.4981041723
Br -1.4707189793 -1.9853253915 0.053881438
Cs 1.108858351 0.1368335345 0.531274661
8

O -0.6141586671 2.220379002 2.0625200773
H -0.8356701555 2.4669704766 2.964130795
H -1.4248382704 1.7796221816 1.6941922407
O 0.216752817 1.8117056717 -1.7702081575
H 0.0646912519 2.6957461168 -1.4050230541
H -0.6581235221 1.4749147643 -2.0212024625
Br -1.4707189793 -1.9853253915 0.053881438
Cs 1.108858351 0.1368335345 0.531274661
8

O -2.3191642582 0.5037832199 -1.8906240701
H -2.9488189272 0.3217738926 -2.5915014533
H -2.07681472 -0.3622064539 -1.4981041723
O 0.216752817 1.8117056717 -1.7702081575
H 0.0646912519 2.6957461168 -1.4050230541
H -0.6581235221 1.4749147643 -2.0212024625
Br -1.4707189793 -1.9853253915 0.053881438
Cs 1.108858351 0.1368335345 0.531274661
8

O 0.2265337841 -1.8949118355 2.2943818765
H -0.1094215989 -1.1625071159 2.8270907596
H -0.5721581401 -2.2581208111 1.8791412038
O -1.0352795617 0.6888328636 2.8306449861
H -1.3910265084 1.1150294377 3.6128748715
H -1.6781046796 0.8624132989 2.1198601662
Br -2.6473741306 0.8742272747 -0.056343599
Cs 0.736076666 0.0374727582 0.0528291185
8

O -2.1490618109 -2.2930430372 0.835801331
H -2.7433858309 -2.9231511824 0.4227015599
H -2.495570792 -1.4106259236 0.6070594848
O 0.2265337841 -1.8949118355 2.2943818765
H -0.1094215989 -1.1625071159 2.8270907596
H -0.5721581401 -2.2581208111 1.8791412038
Br -2.6473741306 0.8742272747 -0.056343599
Cs 0.736076666 0.0374727582 0.0528291185
8

O -2.1490618109 -2.2930430372 0.835801331
H -2.7433858309 -2.9231511824 0.4227015599
H -2.495570792 -1.4106259236 0.6070594848
O -1.0352795617 0.6888328636 2.8306449861
H -1.3910265084 1.1150294377 3.6128748715
H -1.6781046796 0.8624132989 2.1198601662
Br -2.6473741306 0.8742272747 -0.056343599
Cs 0.736076666 0.0374727582 0.0528291185
8

O -2.1490618109 -2.2930430372 0.835801331
H -2.7433858309 -2.9231511824 0.4227015599
H -2.495570792 -1.4106259236 0.6070594848
O 1.4995803172 -0.8151586297 -2.7356262981
H 1.9280377803 -0.9967724891 -3.5710955097
H 0.5650823277 -0.6218331114 -2.9381306905
Br -2.6473741306 0.8742272747 -0.056343599
Cs 0.736076666 0.0374727582 0.0528291185
8

O -1.0784277625 -2.1779749091 0.7363956597
H -0.4728029257 -1.893331101 1.4340756206
H -0.5069726035 -2.4839888153 0.0154541637
O 2.2976760468 0.9518333304 -1.7917480706
H 2.8489653215 1.2279790639 -2.5282015453
H 2.1022729131 0.0023041621 -1.9471795792
Br 1.236255981 -2.0853016737 -1.7037738832
Cs -0.7786391366 0.7456285839 -0.6932099661
8

O -1.4666077444 0.7154389946 2.9600469873
H -1.7993203982 0.7020664561 3.8584481503
H -0.5684850307 0.3233686134 2.9912402602
O 2.0485607438 0.4368612572 -2.1100182795
H 2.981463846 0.3218567682 -1.8443084136
H 1.6516407301 -0.3796726757 -1.7323199021
Br 1.0864962023 -2.0637144432 -0.3107495744
Cs -1.2319230099 0.4754748201 -0.0227479251
8

O -3.1620931597 -0.259416889 1.0092806527
H -2.9831675387 -0.0638151837 1.9378758514
H -2.7451633515 -1.1254231687 0.8856849286
O 3.4797602109 0.5077499189 0.7580462005
H 3.4023340484 -0.4551407849 0.8524813254
H 3.1616842191 0.7173560974 -0.1361054776
Br 1.236255981 -2.0853016737 -1.7037738832
Cs -0.7786391366 0.7456285839 -0.6932099661
8

O 0.9951144638 -0.3534057738 2.5570382182
H 1.7625359928 0.2135802601 2.3844678408
H 1.067976464 -1.0739048377 1.9071343139
O -0.4578000809 1.2778667121 -2.9741823602
H -0.771339545 1.1239442719 -3.8676940414
H 0.4826183703 1.0373864748 -2.9849049028
Br 1.0864962023 -2.0637144432 -0.3107495744
Cs -1.2319230099 0.4754748201 -0.0227479251
8

O -1.2083267164 0.0854841832 2.9844040804
H -0.3794942735 -0.3799710561 3.1483173588
H -0.9670457006 1.0237810759 2.9343109565
O 1.2382844985 -1.2510139747 1.9933211423
H 1.9032274655 -1.8604067503 1.6391358168
H 1.6153565646 -0.3643126422 1.8521978587
Br -0.2388925786 2.0109512306 -0.826135906
Cs -1.2496646332 -1.1742402376 0.1765425681
8

O -0.3084377641 2.7829517999 2.4049407991
H -0.7052161601 3.6093595341 2.6897777919
H -0.4183372937 2.7541144557 1.436337183
O 1.2382844985 -1.2510139747 1.9933211423
H 1.9032274655 -1.8604067503 1.6391358168
H 1.6153565646 -0.3643126422 1.8521978587
Br -0.2388925786 2.0109512306 -0.826135906
Cs -1.2496646332 -1.1742402376 0.1765425681
8

O 2.1169849693 1.3780459294 1.4057717097
H 1.8738121318 1.9950025287 2.1051599401
H 1.4944162017 1.5950814582 0.6837861753
O -0.3084377641 2.7829517999 2.4049407991
H -0.7052161601 3.6093595341 2.6897777919
H -0.4183372937 2.7541144557 1.436337183
Br -0.2388925786 2.0109512306 -0.826135906
Cs -1.2496646332 -1.1742402376 0.1765425681
8

O -1.6564632378 2.6560192805 -1.6388559909
H -2.1524042706 2.5979135125 -2.4586320317
H -1.9344302639 1.8702187572 -1.1248734324
O 1.0771309947 2.5613614027 -1.5723872147
H 1.4338513931 3.4467047105 -1.6601084372
H 0.1046891156 2.658952085 -1.6712679637
Br -2.1358501566 -0.2232380814 -0.1525058409
Cs 1.2093103417 0.0179236827 0.0254455757
8

O -1.7049938477 -0.3000431407 3.1067881848
H -2.1386382574 -1.0991725675 3.4140132255
H -1.9806625094 -0.2083143294 2.1721534829
O 1.0771309947 2.5613614027 -1.5723872147
H 1.4338513931 3.4467047105 -1.6601084372
H 0.1046891156 2.658952085 -1.6712679637
Br -2.1358501566 -0.2232380814 -0.1525058409
Cs 1.2093103417 0.0179236827 0.0254455757
