2

Cs 0.25 0.0 0.0
Cl 2.6908768782 0.0 0.0
2

Cs 0.1499999999999998 0.0 0.0
Cl 2.7908768782 0.0 0.0
2

Cs 0.1000000000000002 0.0 0.0
Cl 2.8408768782 0.0 0.0
2

Cs 0.04999999999999993 0.0 0.0
Cl 2.8908768782000003 0.0 0.0
2

Cs -0.04999999999999993 0.0 0.0
Cl 2.9908768782 0.0 0.0
2

Cs -0.2000000000000004 0.0 0.0
Cl 3.1408768782000003 0.0 0.0
2

Cs -0.5 0.0 0.0
Cl 3.4408768782 0.0 0.0
2

Cs -0.6499999999999998 0.0 0.0
Cl 3.5908768782 0.0 0.0
2

Cs -0.7999999999999996 0.0 0.0
Cl 3.7408768781999995 0.0 0.0
2

Cs -0.8500000000000002 0.0 0.0
Cl 3.7908768782 0.0 0.0
2

Cs -0.9500000000000001 0.0 0.0
Cl 3.8908768782000003 0.0 0.0
2

Cs -1.2500000000000002 0.0 0.0
Cl 4.1908768782 0.0 0.0
2

Cs -1.2999999999999996 0.0 0.0
Cl 4.2408768782 0.0 0.0
2

Cs -1.3999999999999995 0.0 0.0
Cl 4.3408768782 0.0 0.0
2

Cs -1.5 0.0 0.0
Cl 4.4408768782 0.0 0.0
2

Cs -1.5999999999999999 0.0 0.0
Cl 4.5408768782 0.0 0.0
2

Cs -1.7999999999999996 0.0 0.0
Cl 4.7408768782 0.0 0.0
2

Cs -1.8999999999999995 0.0 0.0
Cl 4.8408768782 0.0 0.0
2

Cs -1.95 0.0 0.0
Cl 4.8908768782 0.0 0.0
2

Cs -2.05 0.0 0.0
Cl 4.9908768782 0.0 0.0
2

Cs -2.1000000000000005 0.0 0.0
Cl 5.040876878200001 0.0 0.0
2

Cs -2.45 0.0 0.0
Cl 5.3908768782 0.0 0.0
2

Cs -2.5 0.0 0.0
Cl 5.4408768782 0.0 0.0
2

Cs -2.55 0.0 0.0
Cl 5.4908768782 0.0 0.0
2

Cs -2.6000000000000005 0.0 0.0
Cl 5.540876878200001 0.0 0.0
2

Cs -2.6500000000000004 0.0 0.0
Cl 5.5908768782000005 0.0 0.0
5

O 0.2621431239 0.1256164441 2.9822643027
H 1.0363421436 -0.4487405802 2.9021051944
H -0.4867662781 -0.4938190301 3.0827179104
Cl 2.0202890252 -0.4975523139 -0.7168870186
Cs -0.3761386569 1.4920451278 0.4053192699
5

O -0.0388899948 -3.5231242343 1.5674145489
H -0.1657345703 -3.4425757333 0.6144296233
H 0.809770987 -3.0881543768 1.7489470211
Cl 2.0202890252 -0.4975523139 -0.7168870186
Cs -0.3761386569 1.4920451278 0.4053192699
5

O -0.5542213983 -2.2327733762 -1.0998760897
H -0.7053166578 -2.114895855 -2.0521035557
H 0.2821078227 -1.7485925384 -0.9364463528
Cl 2.0202890252 -0.4975523139 -0.7168870186
Cs -0.3761386569 1.4920451278 0.4053192699
5

O 3.0309450533 -1.6899209086 -1.2351325458
H 3.7029691756 -2.3041540169 -1.5368025945
H 2.2158650423 -2.2245516711 -1.0511450261
Cl -2.3181677229 1.1865475512 0.9437238149
Cs 0.7541712257 1.641049626 -0.0161876425
5

O -0.9560342071 -1.6317833186 -2.6845898176
H -1.242016652 -2.1745182901 -3.4224171179
H -1.7689429283 -1.2474657404 -2.2974818122
Cl -2.3181677229 1.1865475512 0.9437238149
Cs 0.7541712257 1.641049626 -0.0161876425
5

O 0.7518210236 -2.922190374 -0.6792672538
H 0.4572104169 -2.8794868268 0.2421163402
H -0.0129667479 -2.6597269608 -1.2120655495
Cl -2.3181677229 1.1865475512 0.9437238149
Cs 0.7541712257 1.641049626 -0.0161876425
5

O 1.1350547241 -1.1512155284 -1.33978494
H 0.6702526628 -1.9911799716 -1.5028816156
H 1.4314497021 -1.2040141662 -0.4070467489
Cl -1.1296337349 -2.1435539571 1.5953600075
Cs -1.1030167756 0.6977871968 -0.1567428712
5

O 1.4850981408 2.2884676838 -0.4499640631
H 2.0654363646 1.9229713522 -1.1329421881
H 1.9886514696 2.1930696781 0.3734214475
Cl -1.1296337349 -2.1435539571 1.5953600075
Cs -1.1030167756 0.6977871968 -0.1567428712
5

O 2.9274894063 1.4020634189 1.8624986371
H 3.3731857258 1.8398755442 2.5905364644
H 3.6199656307 0.9310381793 1.344717821
Cl -1.1296337349 -2.1435539571 1.5953600075
Cs -1.1030167756 0.6977871968 -0.1567428712
5

O 1.634457923 1.036618777 -2.5298657383
H 1.9028816859 1.1886357498 -3.4381191113
H 1.5906517708 0.0614139556 -2.4167990028
Cl 1.173960277 -1.7997403199 -1.5288258291
Cs -0.6191831972 0.7269548656 -0.1824109814
5

O 0.9421806812 -0.0304369208 2.465568146
H 1.1541004421 0.9131280571 2.4880678045
H 1.7135187534 -0.4687765705 2.0727475363
Cl 1.173960277 -1.7997403199 -1.5288258291
Cs -0.6191831972 0.7269548656 -0.1824109814
5

O 0.6981381292 -1.0634342465 -1.5598782665
H 0.9758942308 -1.2803647273 -0.656723875
H 1.06433489 -0.1672454126 -1.7248629523
Cl -0.0837437665 2.1676746444 0.7832945398
Cs -1.9352880968 -0.1752051113 -0.4333564018
5

O -1.0681810169 -2.4802878359 1.3397400622
H -1.2678353863 -3.3314800214 1.7320092189
H -0.0962594065 -2.3899462055 1.3671334111
Cl -0.0837437665 2.1676746444 0.7832945398
Cs -1.9352880968 -0.1752051113 -0.4333564018
5

O 3.0454546666 -1.0380607539 0.7823240625
H 3.6995328528 -1.7097975544 0.9882884597
H 2.5040636352 -1.4040349754 0.0456388242
Cl 1.173960277 -1.7997403199 -1.5288258291
Cs -0.6191831972 0.7269548656 -0.1824109814
5

O 0.4227513311 -0.5655511537 -2.6446592209
H 0.5316793703 -1.5207535311 -2.5228446478
H 1.2495555934 -0.173076131 -2.3234498288
Cl 2.6101652527 0.9139499813 -0.7320180352
Cs -1.0675830034 0.5495568033 -0.2908733529
5

O 2.6565043349 -2.2127638893 0.0370894915
H 2.2823024145 -2.1809059261 0.9317818809
H 2.8173068637 -1.2873960419 -0.2143361175
Cl 2.6101652527 0.9139499813 -0.7320180352
Cs -1.0675830034 0.5495568033 -0.2908733529
5

O 0.6873731791 3.2656875219 -0.936965161
H 0.9457971164 3.9765091758 -1.527894563
H 1.4244671726 2.6119297573 -0.9645583809
Cl 2.6101652527 0.9139499813 -0.7320180352
Cs -1.0675830034 0.5495568033 -0.2908733529
5

O -0.3058492259 3.1629603401 1.5967873281
H -0.4219768112 3.9629961623 2.1135478219
H 0.1109672724 3.4384234919 0.7550573261
Cl 2.6101652527 0.9139499813 -0.7320180352
Cs -1.0675830034 0.5495568033 -0.2908733529
5

O 2.3767622291 -0.1584133167 1.5149573316
H 2.8448308242 0.597767126 1.1313480391
H 2.3751310358 -0.799235519 0.7841610887
Cl 2.0593250935 -1.1563030426 -1.4855492156
Cs -0.6509120492 0.310069597 0.1579409632
5

O 0.7067377376 -0.1001964984 3.6726145406
H 1.06277571 0.4385231789 4.380784701
H 1.3965004052 -0.1469561292 2.9813348568
Cl 2.0593250935 -1.1563030426 -1.4855492156
Cs -0.6509120492 0.310069597 0.1579409632
5

O -0.7588059869 -1.5508355992 -1.7131444851
H -1.0970595461 -2.1223756646 -1.0131913281
H -1.4505447758 -0.8788957312 -1.8469622061
Cl -0.9654619214 1.9790700136 0.5447545094
Cs 1.1921466884 -0.3406789037 0.2117051048
5

O -1.0034448101 -2.3041391526 1.1544136501
H -1.2369252656 -3.0592441976 1.6974440275
H -1.7595185656 -1.6698304011 1.2284202326
Cl -0.9654619214 1.9790700136 0.5447545094
Cs 1.1921466884 -0.3406789037 0.2117051048
5

O -2.4813986532 0.0185924077 1.5966000053
H -1.7856984119 -0.4616297377 2.0656020132
H -3.0152306304 -0.6730901187 1.1682656807
Cl 0.5406208263 -1.423578206 1.7328170131
Cs -0.6276480618 0.5314688238 -0.7314442259
5

O -1.0305177116 -2.845189806 -0.6572309951
H -0.5099648585 -2.6218557655 -1.447388998
H -0.4646474297 -2.6243020729 0.1031007555
Cl 0.5406208263 -1.423578206 1.7328170131
Cs -0.6276480618 0.5314688238 -0.7314442259
5

O 3.3086750425 -2.123073176 0.5796278824
H 3.6519609491 -3.0032063621 0.7484659492
H 2.4212097515 -2.0842103728 0.9984801801
Cl 0.5406208263 -1.423578206 1.7328170131
Cs -0.6276480618 0.5314688238 -0.7314442259
5

O 0.342881162 -1.5897701238 -2.828842469
H 0.3987949985 -1.9841749272 -3.7011268918
H 1.2648849603 -1.3640737165 -2.5547658634
Cl 0.5406208263 -1.423578206 1.7328170131
Cs -0.6276480618 0.5314688238 -0.7314442259
5

O 2.3643292109 0.8159005258 1.8714334651
H 2.5330555561 1.1276829293 2.7636999827
H 1.5529322188 1.3038645132 1.5643994773
Cl -0.0837437665 2.1676746444 0.7832945398
Cs -1.9352880968 -0.1752051113 -0.4333564018
5

O 0.7601506876 2.4620831145 -1.0398126319
H 0.1822462114 2.8893782609 -0.3879320233
H 0.1797647625 1.8645037521 -1.539624401
Cl -1.1901038808 0.0805786968 -1.9667477269
Cs 1.2226713265 -0.5032265046 0.5004283306
5

O -3.1207346206 1.8929400137 -0.4247320064
H -3.8022152182 2.2305225522 -1.0109301402
H -2.5385553863 1.3284982027 -0.9867510353
Cl -1.1901038808 0.0805786968 -1.9667477269
Cs 1.2226713265 -0.5032265046 0.5004283306
5

O -3.2188996229 -0.1822929267 1.6540463572
H -3.4214732375 0.5201268943 1.0203166203
H -3.0818236136 -0.9666269985 1.1010895285
Cl -1.1901038808 0.0805786968 -1.9667477269
Cs 1.2226713265 -0.5032265046 0.5004283306
5

O -0.8233800595 -1.3030329214 2.0394225863
H 0.0017257442 -1.0200470533 2.4587732062
H -0.6178228796 -2.1575511628 1.6195083565
Cl 0.5023161116 -1.4026330199 -1.8991906394
Cs -1.4109999838 0.6169188327 -0.1511181069
5

O 0.7208051715 2.0304348285 1.3173898347
H 1.1810318826 1.413246494 1.9071292899
H 1.4080189967 2.3592082036 0.7142250395
Cl 0.5023161116 -1.4026330199 -1.8991906394
Cs -1.4109999838 0.6169188327 -0.1511181069
5

O 3.0402732545 0.3297537883 -2.0968885722
H 3.5268874823 0.1663054762 -2.9077234229
H 2.213507819 -0.1967516491 -2.1721347496
Cl 0.5023161116 -1.4026330199 -1.8991906394
Cs -1.4109999838 0.6169188327 -0.1511181069
5

O 2.5577876783 2.6962856532 -0.7243709796
H 2.8001404315 3.4752395694 -1.2265871998
H 2.7740027995 1.9251585622 -1.2815930246
Cl 0.5023161116 -1.4026330199 -1.8991906394
Cs -1.4109999838 0.6169188327 -0.1511181069
5

O 0.9886728244 1.476537044 2.5556678353
H 0.3097781912 2.1205131408 2.313150447
H 0.5042061286 0.6567030649 2.7319955617
Cl -0.6077278736 -1.3035378099 1.7699978647
Cs 0.8989154989 0.7172469023 -0.4243653619
5

O -2.288321106 0.9055211007 0.3695996901
H -2.8393155705 0.4713777077 -0.2994763866
H -1.9494451249 0.1869036289 0.9405506232
Cl -0.6077278736 -1.3035378099 1.7699978647
Cs 0.8989154989 0.7172469023 -0.4243653619
5

O -0.3202057098 1.3733649489 1.8913548034
H 0.3574527714 0.9748192961 2.4490733226
H 0.2011981056 1.9277022883 1.287408625
Cl 1.6571962755 2.0647136306 -0.5280643817
Cs -0.7776981035 -0.3004523221 -0.6294824462
5

O 1.9712722707 -1.8997146999 0.4108495442
H 2.2326942094 -1.5795303021 -0.466851051
H 2.2610887511 -1.2101620813 1.0348347071
Cl 1.6571962755 2.0647136306 -0.5280643817
Cs -0.7776981035 -0.3004523221 -0.6294824462
5

O 2.5486661504 0.3977532196 1.9108959299
H 3.3979264682 0.6238235154 2.2963206152
H 2.4182065724 1.014808891 1.1567369281
Cl 1.6571962755 2.0647136306 -0.5280643817
Cs -0.7776981035 -0.3004523221 -0.6294824462
5

O -0.4872063811 -3.063365504 0.5062643561
H -0.5799609829 -3.9567557231 0.8395279583
H 0.4611153146 -2.8340227276 0.5772864802
Cl 1.6571962755 2.0647136306 -0.5280643817
Cs -0.7776981035 -0.3004523221 -0.6294824462
5

O 0.0864805806 -2.8926507079 -0.9448791949
H -0.7547649891 -3.1790038767 -0.5732156422
H -0.1827872703 -2.2324234483 -1.6019658996
Cl -1.1126934793 -0.0546941701 -1.9910923275
Cs 1.3441052468 -0.3946123788 0.4423144177
5

O 4.0533828445 0.7696026115 -0.313623747
H 4.8765750418 1.2564454301 -0.2372705177
H 3.58220269 0.8729177338 0.5379829735
Cl -0.0837437665 2.1676746444 0.7832945398
Cs -1.9352880968 -0.1752051113 -0.4333564018
5

O -1.7964810924 1.2345580896 1.6372044984
H -2.322403913 1.4438941158 0.8510049254
H -2.0684205976 0.3370250163 1.8833256704
Cl -2.1001801075 -1.1015513267 -1.4399040843
Cs 0.6139431227 -0.3540043353 0.2015994562
5

O 0.7451936181 2.4384354815 -1.1050563474
H 0.1754196435 1.8440721569 -1.6188768846
H 0.1612942824 2.8471414911 -0.4437469146
Cl -1.1126934793 -0.0546941701 -1.9910923275
Cs 1.3441052468 -0.3946123788 0.4423144177
5

O -2.8342179744 -2.0755514752 -0.4485750016
H -3.5555052111 -2.3878401369 -1.000997465
H -2.3447697894 -1.425824088 -1.0050389898
Cl -1.1126934793 -0.0546941701 -1.9910923275
Cs 1.3441052468 -0.3946123788 0.4423144177
5

O -1.1083174933 3.2187169608 0.8958013804
H -1.3486604352 4.1207877762 1.116365843
H -1.9007493407 2.8050091171 0.4674349955
Cl -1.1126934793 -0.0546941701 -1.9910923275
Cs 1.3441052468 -0.3946123788 0.4423144177
5

O 0.0629846247 -1.6426497209 2.3026016967
H 0.172921542 -2.5016713517 2.7155428275
H -0.8318052196 -1.6451147226 1.9037742796
Cl -2.5311803441 -0.8708552045 0.8228182761
Cs 0.6123589771 0.2801140119 -0.1663260987
5

O -2.1789946692 1.2301452859 -1.4068017077
H -2.7726497446 1.9750334099 -1.5212731832
H -2.5183358779 0.7216635397 -0.6420391668
Cl -2.5311803441 -0.8708552045 0.8228182761
Cs 0.6123589771 0.2801140119 -0.1663260987
5

O 1.0355680632 -1.4723034818 -2.6068831334
H 1.3833794359 -1.9565037636 -3.3569968976
H 0.0675931127 -1.6144611971 -2.6098981101
Cl -2.5311803441 -0.8708552045 0.8228182761
Cs 0.6123589771 0.2801140119 -0.1663260987
5

O 0.6454116285 2.7272135939 1.600053199
H 0.8133811881 3.582758155 1.997576607
H 0.0226643558 2.2633433554 2.1956013731
Cl -2.5311803441 -0.8708552045 0.8228182761
Cs 0.6123589771 0.2801140119 -0.1663260987
5

O -1.0062583709 1.0025784139 2.9529280097
H -0.5119545236 0.2040790502 3.1808696256
H -1.7354903301 0.6564955384 2.4118427196
Cl -2.5311803441 -0.8708552045 0.8228182761
Cs 0.6123589771 0.2801140119 -0.1663260987
5

O 0.7689309161 0.3793165841 2.2604654401
H -0.1747807151 0.5082370534 2.4171572769
H 1.0382352406 1.1578703305 1.7408338241
Cl 1.6943421257 2.1221415017 -0.2411564178
Cs 1.7640683816 -1.0698964927 -0.192850571
5

O -1.2572972069 -1.0302803245 -0.3180430416
H -1.3954236613 -0.4637140819 0.4683407531
H -1.6469472555 -0.4700513041 -1.0260644475
Cl 1.6943421257 2.1221415017 -0.2411564178
Cs 1.7640683816 -1.0698964927 -0.192850571
5

O 0.8310649556 0.5286115145 -2.1158834981
H 1.7934027226 0.4597025686 -2.0745541754
H 0.6351789333 1.4345351723 -1.8232074745
Cl -1.7529196209 1.6951040017 1.0560175894
Cs -0.5338442652 -1.0536558541 0.1002686649
5

O 0.3537244064 2.9217564509 -0.6353159855
H 0.1709233867 3.844366513 -0.8246908266
H -0.413703696 2.5987541722 -0.0819244056
Cl -1.7529196209 1.6951040017 1.0560175894
Cs -0.5338442652 -1.0536558541 0.1002686649
5

O -2.4455478265 1.8968037154 -1.1022626961
H -3.1758760835 2.2609106912 -1.606679797
H -2.3949519786 0.9396252335 -1.3435046245
Cl -2.1001801075 -1.1015513267 -1.4399040843
Cs 0.6139431227 -0.3540043353 0.2015994562
5

O 2.4405498369 2.0302080818 -0.2003963593
H 3.1671793056 2.6256266738 -0.3896810214
H 1.6295617626 2.5736527408 -0.1916410885
Cl -2.1001801075 -1.1015513267 -1.4399040843
Cs 0.6139431227 -0.3540043353 0.2015994562
5

O 1.9437326618 1.436434937 1.1816237435
H 2.8642826102 1.6703696133 0.9591487209
H 1.97236057 0.4700161763 1.3525452679
Cl 1.9433151153 -1.6464820666 0.9940337263
Cs -1.1225087085 -0.9018337284 0.1191556047
5

O -0.5061534477 2.7773670768 1.3779502885
H -0.5864222479 3.1124152767 0.4720781346
H 0.3995025291 2.4303863665 1.455784077
Cl 1.9433151153 -1.6464820666 0.9940337263
Cs -1.1225087085 -0.9018337284 0.1191556047
5

O -0.8238551676 3.1655704981 -1.4744367096
H -0.6347575151 3.9225958314 -2.031992707
H -0.1363721899 2.4902846791 -1.6566329316
Cl 1.9433151153 -1.6464820666 0.9940337263
Cs -1.1225087085 -0.9018337284 0.1191556047
5

O -0.8827639263 1.5525582766 1.2843126618
H -0.1414708661 2.1526757019 1.1150821794
H -0.4948907484 0.8147124671 1.7791267224
Cl 0.4760744421 -1.36387922 1.7677067524
Cs -1.0712674496 -0.396978428 -0.9979283713
8

O -0.9282714537 -2.8220706656 -2.0423596015
H -1.1465650947 -3.5688198678 -2.6033743897
H -1.7051348013 -2.6747791525 -1.4435000955
O 2.6326529637 -0.3707218388 1.9736441577
H 3.159699719 -0.7349611827 1.2494189854
H 2.0361062497 -1.0836694631 2.2420632261
Cl -1.7966321555 1.3367626044 1.2630939218
Cs 1.114109862 1.1015252156 -0.291932728
8

O -1.953433448 -1.5090964709 2.2122853891
H -2.5307445157 -1.5261833693 2.9796838039
H -1.8958984629 -0.5515189789 1.9483481254
O 0.6145758064 -2.4653368486 2.2704305208
H 0.6818010057 -3.1966725645 2.8880692775
H -0.3073172012 -2.1332458524 2.3365993917
Cl -1.7966321555 1.3367626044 1.2630939218
Cs 1.114109862 1.1015252156 -0.291932728
8

O -2.2943367385 -1.7554224487 -1.039405229
H -2.1907559103 -1.8165408976 -0.0750596615
H -2.9219149561 -1.0180006266 -1.1734523577
O -1.8178162162 -1.6081049757 1.7811018565
H -2.4768245673 -1.9549137626 2.3879509463
H -1.9399426195 -0.6208668944 1.7968978617
Cl -2.2311293475 1.3620227645 1.6006973979
Cs 0.5792743597 1.9252511935 0.0540636553
8

O -3.671501103 0.6245481883 -1.0587447492
H -4.6121988258 0.8068161666 -1.0162959594
H -3.2991226927 0.9494437328 -0.2116763774
O -0.9304859854 -3.9682796183 -1.9769524262
H -1.073565198 -4.22272828 -2.8899372295
H -1.548857315 -3.2365191007 -1.7922637186
Cl -2.2311293475 1.3620227645 1.6006973979
Cs 0.5792743597 1.9252511935 0.0540636553
8

O -1.8178162162 -1.6081049757 1.7811018565
H -2.4768245673 -1.9549137626 2.3879509463
H -1.9399426195 -0.6208668944 1.7968978617
O 0.1934975279 -0.4550453868 -1.6624280768
H 0.7630525832 -1.2088483293 -1.4385726168
H -0.7010161174 -0.8252051698 -1.5787444546
Cl -2.2311293475 1.3620227645 1.6006973979
Cs 0.5792743597 1.9252511935 0.0540636553
8

O 0.0325339042 -0.4598212103 -3.0180588389
H 0.2341776026 -0.4875360812 -3.9556992662
H 0.8955591486 -0.4646982453 -2.5498062649
O -2.1275351809 -1.2275947663 0.68581726
H -1.714181042 -1.4714922609 1.5250463997
H -1.8064937729 -1.8714537058 0.0270728737
Cl 2.3009143185 -0.3309576082 -0.9496460551
Cs -0.6598526634 1.1275721487 -0.3743486258
8

O 0.0325339042 -0.4598212103 -3.0180588389
H 0.2341776026 -0.4875360812 -3.9556992662
H 0.8955591486 -0.4646982453 -2.5498062649
O -0.983641929 -2.6840454651 -1.4292969432
H -0.7506393731 -2.0395700742 -2.1138051413
H -0.1377931648 -3.0957710249 -1.1959659043
Cl 2.3009143185 -0.3309576082 -0.9496460551
Cs -0.6598526634 1.1275721487 -0.3743486258
8

O 0.0325339042 -0.4598212103 -3.0180588389
H 0.2341776026 -0.4875360812 -3.9556992662
H 0.8955591486 -0.4646982453 -2.5498062649
O 1.8722764844 -1.9877960695 1.8013958166
H 1.8162230016 -2.7415737416 1.1952470228
H 2.1360792264 -1.2674394133 1.2045125776
Cl 2.3009143185 -0.3309576082 -0.9496460551
Cs -0.6598526634 1.1275721487 -0.3743486258
8

O -0.9775051887 3.107923695 1.0383864604
H -1.3854266234 3.9417073378 1.2783373007
H -1.7032165675 2.4515276963 0.9633764454
O 1.0643064335 1.3980912261 2.3063583608
H 0.3630726496 2.061831159 2.2655661155
H 0.6206363789 0.5668087215 2.5288512843
Cl -0.5814538309 -1.3768656618 1.6040164964
Cs 0.4986520627 0.8141506711 -0.6280194768
8

O -0.9775051887 3.107923695 1.0383864604
H -1.3854266234 3.9417073378 1.2783373007
H -1.7032165675 2.4515276963 0.9633764454
O -3.3341631564 -0.565460964 -1.5513129672
H -2.6907402882 -0.5066907523 -2.2662890921
H -3.1609904607 -1.4430327645 -1.178366975
Cl -0.5814538309 -1.3768656618 1.6040164964
Cs 0.4986520627 0.8141506711 -0.6280194768
8

O -0.5966241087 -1.3495882012 -2.653993334
H -0.3897125173 -1.7901035218 -3.4807750938
H -0.9418138203 -2.0451641046 -2.0576795023
O -3.3341631564 -0.565460964 -1.5513129672
H -2.6907402882 -0.5066907523 -2.2662890921
H -3.1609904607 -1.4430327645 -1.178366975
Cl -0.5814538309 -1.3768656618 1.6040164964
Cs 0.4986520627 0.8141506711 -0.6280194768
8

O 0.8310649556 0.5286115145 -2.1158834981
H 1.7934027226 0.4597025686 -2.0745541754
H 0.6351789333 1.4345351723 -1.8232074745
O 2.4415400324 1.7992653897 0.803228984
H 2.0333302039 1.2200042152 1.4620972667
H 1.7192946776 2.3217912252 0.4025383464
Cl -1.7529196209 1.6951040017 1.0560175894
Cs -0.5338442652 -1.0536558541 0.1002686649
8

O 0.8310649556 0.5286115145 -2.1158834981
H 1.7934027226 0.4597025686 -2.0745541754
H 0.6351789333 1.4345351723 -1.8232074745
O 0.3537244064 2.9217564509 -0.6353159855
H 0.1709233867 3.844366513 -0.8246908266
H -0.413703696 2.5987541722 -0.0819244056
Cl -1.7529196209 1.6951040017 1.0560175894
Cs -0.5338442652 -1.0536558541 0.1002686649
8

O 2.6880820979 -2.0302675203 0.1578735948
H 3.2204035504 -2.8141548175 0.009976785
H 3.118258214 -1.3027527195 -0.3423729471
O 2.4415400324 1.7992653897 0.803228984
H 2.0333302039 1.2200042152 1.4620972667
H 1.7192946776 2.3217912252 0.4025383464
Cl -1.7529196209 1.6951040017 1.0560175894
Cs -0.5338442652 -1.0536558541 0.1002686649
8

O 0.9886728244 1.476537044 2.5556678353
H 0.3097781912 2.1205131408 2.313150447
H 0.5042061286 0.6567030649 2.7319955617
O -2.288321106 0.9055211007 0.3695996901
H -2.8393155705 0.4713777077 -0.2994763866
H -1.9494451249 0.1869036289 0.9405506232
Cl -0.6077278736 -1.3035378099 1.7699978647
Cs 0.8989154989 0.7172469023 -0.4243653619
8

O -0.83798397 3.1190480738 0.8695802727
H -1.2599578757 3.8814844423 1.270121497
H -1.5467581702 2.4640217766 0.7033405166
O 0.9886728244 1.476537044 2.5556678353
H 0.3097781912 2.1205131408 2.313150447
H 0.5042061286 0.6567030649 2.7319955617
Cl -0.6077278736 -1.3035378099 1.7699978647
Cs 0.8989154989 0.7172469023 -0.4243653619
8

O 2.6880820979 -2.0302675203 0.1578735948
H 3.2204035504 -2.8141548175 0.009976785
H 3.118258214 -1.3027527195 -0.3423729471
O 0.3537244064 2.9217564509 -0.6353159855
H 0.1709233867 3.844366513 -0.8246908266
H -0.413703696 2.5987541722 -0.0819244056
Cl -1.7529196209 1.6951040017 1.0560175894
Cs -0.5338442652 -1.0536558541 0.1002686649
8

O -2.8514550151 0.6959310907 0.6022806437
H -2.670895264 -0.0438575401 1.20602128
H -2.8711429452 0.3149046754 -0.2925540018
O -0.2677637095 1.701268693 -1.8070182189
H -0.702905158 2.3638616733 -1.2541140559
H -0.9771327465 1.1120493835 -2.1062697233
Cl -0.6939387768 -2.4588474965 -0.5069147839
Cs 0.657283812 0.2692098224 0.6928188904
8

O 1.4558268559 0.5739100062 -2.2679847182
H 0.7412281489 0.1039837136 -2.7235419335
H 2.1574287371 -0.0889509082 -2.1389218684
O 3.2680534312 -1.4975776014 -1.4675683109
H 3.245542735 -1.3025666243 -0.5227374561
H 2.6163416279 -2.2063390145 -1.553104364
Cl -2.433251562 0.3548490322 0.6759867482
Cs 0.5045358089 1.7332313603 0.2855400341
8

O 0.1980342702 -0.9243533231 -2.6796531572
H 0.2592304541 -0.9194695399 -3.6357736393
H -0.7289135663 -0.6817595124 -2.457934554
O -2.1794893514 -0.2732505042 -1.5688975818
H -2.3017549836 -0.9218527538 -0.8616695739
H -2.08310541 0.5775843315 -1.0960060846
Cl -1.2865180663 2.0184343948 0.3935720775
Cs 0.8655263959 -0.3261139844 0.1354780238
8

O -2.6561333297 0.1709194471 2.393970679
H -3.5791133765 0.4063044172 2.5098576369
H -2.2702613773 0.8898768258 1.8384429906
O -2.1794893514 -0.2732505042 -1.5688975818
H -2.3017549836 -0.9218527538 -0.8616695739
H -2.08310541 0.5775843315 -1.0960060846
Cl -1.2865180663 2.0184343948 0.3935720775
Cs 0.8655263959 -0.3261139844 0.1354780238
8

O 0.1980342702 -0.9243533231 -2.6796531572
H 0.2592304541 -0.9194695399 -3.6357736393
H -0.7289135663 -0.6817595124 -2.457934554
O -2.6561333297 0.1709194471 2.393970679
H -3.5791133765 0.4063044172 2.5098576369
H -2.2702613773 0.8898768258 1.8384429906
Cl -1.2865180663 2.0184343948 0.3935720775
Cs 0.8655263959 -0.3261139844 0.1354780238
8

O 0.0864805806 -2.8926507079 -0.9448791949
H -0.7547649891 -3.1790038767 -0.5732156422
H -0.1827872703 -2.2324234483 -1.6019658996
O 0.7451936181 2.4384354815 -1.1050563474
H 0.1754196435 1.8440721569 -1.6188768846
H 0.1612942824 2.8471414911 -0.4437469146
Cl -1.1126934793 -0.0546941701 -1.9910923275
Cs 1.3441052468 -0.3946123788 0.4423144177
8

O -0.7325338222 0.730024807 2.334837659
H -1.6145042337 0.3417637609 2.2351831874
H -0.8361689582 1.6541860512 2.0630641049
O 0.7451936181 2.4384354815 -1.1050563474
H 0.1754196435 1.8440721569 -1.6188768846
H 0.1612942824 2.8471414911 -0.4437469146
Cl -1.1126934793 -0.0546941701 -1.9910923275
Cs 1.3441052468 -0.3946123788 0.4423144177
8

O 3.3203330486 1.6920800195 -0.5539194385
H 4.0498512742 2.2808408573 -0.7518775865
H 2.508860159 2.1445223166 -0.8542905865
O -1.1083174933 3.2187169608 0.8958013804
H -1.3486604352 4.1207877762 1.116365843
H -1.9007493407 2.8050091171 0.4674349955
Cl -1.1126934793 -0.0546941701 -1.9910923275
Cs 1.3441052468 -0.3946123788 0.4423144177
8

O -1.8409411838 -2.7681188457 -0.5690320524
H -1.8866963841 -3.7151095583 -0.4218278085
H -1.4533979449 -2.3801821515 0.2558808214
O -2.288321106 0.9055211007 0.3695996901
H -2.8393155705 0.4713777077 -0.2994763866
H -1.9494451249 0.1869036289 0.9405506232
Cl -0.6077278736 -1.3035378099 1.7699978647
Cs 0.8989154989 0.7172469023 -0.4243653619
8

O -3.3276780776 -0.366501932 1.6370482283
H -4.0295618571 -0.6322131891 2.2344023948
H -3.2331602834 -1.0787441535 0.9694846212
O -1.1083174933 3.2187169608 0.8958013804
H -1.3486604352 4.1207877762 1.116365843
H -1.9007493407 2.8050091171 0.4674349955
Cl -1.1126934793 -0.0546941701 -1.9910923275
Cs 1.3441052468 -0.3946123788 0.4423144177
8

O -2.1733436482 0.8243009526 -1.9753362066
H -2.653226868 0.1814577324 -1.4337280867
H -1.7814246387 0.2947126012 -2.6864793525
O -0.5542213983 -2.2327733762 -1.0998760897
H -0.7053166578 -2.114895855 -2.0521035557
H 0.2821078227 -1.7485925384 -0.9364463528
Cl 2.0202890252 -0.4975523139 -0.7168870186
Cs -0.3761386569 1.4920451278 0.4053192699
8

O 0.2621431239 0.1256164441 2.9822643027
H 1.0363421436 -0.4487405802 2.9021051944
H -0.4867662781 -0.4938190301 3.0827179104
O -0.5542213983 -2.2327733762 -1.0998760897
H -0.7053166578 -2.114895855 -2.0521035557
H 0.2821078227 -1.7485925384 -0.9364463528
Cl 2.0202890252 -0.4975523139 -0.7168870186
Cs -0.3761386569 1.4920451278 0.4053192699
8

O 1.6936959504 -0.2281165517 -3.7915721456
H 2.4241629147 -0.6477807608 -4.2508705205
H 1.9229184009 -0.2697676566 -2.8409866945
O -0.0388899948 -3.5231242343 1.5674145489
H -0.1657345703 -3.4425757333 0.6144296233
H 0.809770987 -3.0881543768 1.7489470211
Cl 2.0202890252 -0.4975523139 -0.7168870186
Cs -0.3761386569 1.4920451278 0.4053192699
8

O 2.4423652829 1.5048269144 -0.4248927353
H 2.1552114093 1.7336247484 -1.3189137669
H 2.9783126783 0.7006121231 -0.4902798952
O 2.2363919535 0.5171705637 2.2678711323
H 2.3534944355 1.245945885 1.6479412505
H 2.6414911422 -0.2380351632 1.8076863543
Cl 0.9522671651 -2.2470792228 -1.2377316712
Cs -0.4841782371 0.4036424179 0.011919945
8

O 2.4423652829 1.5048269144 -0.4248927353
H 2.1552114093 1.7336247484 -1.3189137669
H 2.9783126783 0.7006121231 -0.4902798952
O 0.6608020338 1.8554737835 -2.6481907783
H 0.5570095667 2.5703988621 -3.2778725121
H 0.8505463864 1.0478461014 -3.1778855345
Cl 0.9522671651 -2.2470792228 -1.2377316712
Cs -0.4841782371 0.4036424179 0.011919945
8

O 0.6608020338 1.8554737835 -2.6481907783
H 0.5570095667 2.5703988621 -3.2778725121
H 0.8505463864 1.0478461014 -3.1778855345
O 0.1639837658 0.6298141726 4.0580356351
H 0.3720173459 1.3145467205 4.6962691342
H 0.9459402606 0.5560572175 3.4751562133
Cl 0.9522671651 -2.2470792228 -1.2377316712
Cs -0.4841782371 0.4036424179 0.011919945
8

O 3.3353673108 -1.1370987128 0.2938371191
H 4.1201629932 -1.6852558219 0.2206031347
H 2.6201363311 -1.6170322805 -0.1894640752
O 1.3274933196 -0.5137985092 -3.7455271595
H 0.9596257545 -1.0160367674 -4.4765611197
H 1.298913265 -1.1235213515 -2.9733431458
Cl 0.9522671651 -2.2470792228 -1.2377316712
Cs -0.4841782371 0.4036424179 0.011919945
8

O 3.0611379946 0.5115826443 -2.1632671538
H 3.3872340511 0.4873904406 -3.0647800894
H 2.3618035871 -0.1747791973 -2.0835762815
O -3.0247601751 -1.596791056 -0.9854694649
H -2.5463770152 -2.2390961411 -1.5226706947
H -2.836125262 -1.8997954066 -0.0832320199
Cl -1.1296337349 -2.1435539571 1.5953600075
Cs -1.1030167756 0.6977871968 -0.1567428712
8

O -0.5832320778 -3.3502805293 -1.1904450192
H -0.400908823 -4.2923410007 -1.2118818214
H -0.7383581687 -3.1269375836 -0.2440074471
O 1.8232832732 -1.2132091807 1.3304373967
H 1.9684241409 -0.3872569399 1.8126112729
H 0.981294555 -1.5939477408 1.6525076648
Cl -1.1296337349 -2.1435539571 1.5953600075
Cs -1.1030167756 0.6977871968 -0.1567428712
8

O 1.2230884684 1.2164043388 -0.6332789125
H 1.5634711473 0.9465713651 0.2363056957
H 1.9872187574 1.6526638168 -1.0531441196
O -1.6746378132 -1.6402459798 -0.638120969
H -0.9952624148 -2.3213413111 -0.741772449
H -1.7256145395 -1.5006809665 0.3260746265
Cl -1.5601324476 -0.2698079153 2.211394957
Cs -1.7855102669 1.3120634158 -0.5379833764
8

O 3.7095646717 2.0130750125 -1.6860640633
H 3.8793186656 2.1283520608 -2.6233050371
H 4.1534097561 1.1841069256 -1.4353906572
O 2.1057714924 -1.3210328492 -1.7424649853
H 1.5861135533 -0.5466639944 -1.4720093549
H 1.6503694451 -2.0911939921 -1.3506143976
Cl -1.5601324476 -0.2698079153 2.211394957
Cs -1.7855102669 1.3120634158 -0.5379833764
8

O -0.83798397 3.1190480738 0.8695802727
H -1.2599578757 3.8814844423 1.270121497
H -1.5467581702 2.4640217766 0.7033405166
O -3.5306837839 -0.8043136965 -1.5642167861
H -4.4721510773 -0.9601718329 -1.6610845046
H -3.1493430493 -1.6188444645 -1.1854509918
Cl -0.6077278736 -1.3035378099 1.7699978647
Cs 0.8989154989 0.7172469023 -0.4243653619
8

O 0.7208051715 2.0304348285 1.3173898347
H 1.1810318826 1.413246494 1.9071292899
H 1.4080189967 2.3592082036 0.7142250395
O -0.8233800595 -1.3030329214 2.0394225863
H 0.0017257442 -1.0200470533 2.4587732062
H -0.6178228796 -2.1575511628 1.6195083565
Cl 0.5023161116 -1.4026330199 -1.8991906394
Cs -1.4109999838 0.6169188327 -0.1511181069
8

O 2.8198225283 0.1224965182 1.4982785526
H 3.1946755844 0.593179096 2.2459743472
H 3.5545525872 -0.1052546777 0.8994025335
O 0.7023497099 -3.2664041327 -0.3609912817
H 0.7940612917 -4.2179050565 -0.2888350421
H 0.8034276837 -2.8906500101 0.5571198008
Cl -1.5601324476 -0.2698079153 2.211394957
Cs -1.7855102669 1.3120634158 -0.5379833764
8

O 2.8198225283 0.1224965182 1.4982785526
H 3.1946755844 0.593179096 2.2459743472
H 3.5545525872 -0.1052546777 0.8994025335
O 0.9580953853 -2.0628854854 1.9719391285
H 1.6387789285 -1.3777508314 1.9074731286
H 0.1349800584 -1.5642140739 2.1660699351
Cl -1.5601324476 -0.2698079153 2.211394957
Cs -1.7855102669 1.3120634158 -0.5379833764
8

O 0.4270710143 -2.5617460652 -0.7022174903
H -0.3114697861 -3.0667246521 -0.3465038578
H 0.0083591035 -1.9905899828 -1.3655973811
O 0.7544403524 2.5166305043 -1.7269304001
H 0.2889692643 2.8737517404 -0.9554724404
H 0.1701363355 1.8129957106 -2.0559073974
Cl -1.1897529778 -0.0221549422 -1.8799343193
Cs 1.2010324515 0.104240116 0.6593031265
8

O 3.2264075044 1.7428283107 -0.8513981495
H 4.0005589521 2.1488787179 -1.2436508181
H 2.4498954025 2.1143949965 -1.3174104643
O 0.7544403524 2.5166305043 -1.7269304001
H 0.2889692643 2.8737517404 -0.9554724404
H 0.1701363355 1.8129957106 -2.0559073974
Cl -1.1897529778 -0.0221549422 -1.8799343193
Cs 1.2010324515 0.104240116 0.6593031265
8

O 0.4270710143 -2.5617460652 -0.7022174903
H -0.3114697861 -3.0667246521 -0.3465038578
H 0.0083591035 -1.9905899828 -1.3655973811
O -0.5052161226 2.9232958621 0.8361974897
H -0.5510269404 3.7649213822 1.2943188337
H -1.4273873038 2.6323558161 0.7003928049
Cl -1.1897529778 -0.0221549422 -1.8799343193
Cs 1.2010324515 0.104240116 0.6593031265
8

O -1.7964810924 1.2345580896 1.6372044984
H -2.322403913 1.4438941158 0.8510049254
H -2.0684205976 0.3370250163 1.8833256704
O -2.0409615515 -1.5842749767 1.5739192196
H -2.5999164934 -2.2727350356 1.9394175873
H -2.2395672999 -1.5538032936 0.6090369335
Cl -2.1001801075 -1.1015513267 -1.4399040843
Cs 0.6139431227 -0.3540043353 0.2015994562
8

O -1.7964810924 1.2345580896 1.6372044984
H -2.322403913 1.4438941158 0.8510049254
H -2.0684205976 0.3370250163 1.8833256704
O -2.4455478265 1.8968037154 -1.1022626961
H -3.1758760835 2.2609106912 -1.606679797
H -2.3949519786 0.9396252335 -1.3435046245
Cl -2.1001801075 -1.1015513267 -1.4399040843
Cs 0.6139431227 -0.3540043353 0.2015994562
8

O 2.4405498369 2.0302080818 -0.2003963593
H 3.1671793056 2.6256266738 -0.3896810214
H 1.6295617626 2.5736527408 -0.1916410885
O -2.4455478265 1.8968037154 -1.1022626961
H -3.1758760835 2.2609106912 -1.606679797
H -2.3949519786 0.9396252335 -1.3435046245
Cl -2.1001801075 -1.1015513267 -1.4399040843
Cs 0.6139431227 -0.3540043353 0.2015994562
8

O -3.2080510373 0.6070246228 -1.482781897
H -3.9406359114 1.1586499222 -1.7651524844
H -2.9709994224 0.9092300996 -0.5725606302
O -0.8263477362 -2.7480608984 -2.2800525428
H -0.9834333264 -3.4621024825 -2.9004757836
H -1.6753703773 -2.6036388137 -1.7878158807
Cl -2.2466781497 1.2323472996 1.3310893094
Cs 0.895518319 0.7105076296 0.2990609487
8

O 3.0402732545 0.3297537883 -2.0968885722
H 3.5268874823 0.1663054762 -2.9077234229
H 2.213507819 -0.1967516491 -2.1721347496
O 2.7380128176 -1.3032502859 0.3806261602
H 3.2923067123 -0.7666286245 -0.1987223997
H 1.9687385058 -1.5013203155 -0.1834291025
Cl 0.5023161116 -1.4026330199 -1.8991906394
Cs -1.4109999838 0.6169188327 -0.1511181069
8

O -1.1557958214 -1.4364771916 -2.6911196113
H -1.3982866081 -1.6021786722 -3.6044144925
H -1.9754115311 -1.0810369209 -2.2411878358
O -0.3204785951 -3.3488056641 -0.8055250009
H -0.6268426696 -2.9744940651 0.0344960673
H -0.667723492 -2.7597954567 -1.5019786745
Cl -2.001211557 0.7066512823 1.1428622313
Cs 0.914763385 1.7592828659 0.1709700925
8

O 1.6081023495 -1.157162203 1.5092903239
H 0.7102971818 -1.4942720668 1.649642731
H 1.9963552677 -1.7223086113 0.8213730319
O 2.2903037023 -2.7140610902 -0.7479685631
H 2.9088024978 -3.4282938382 -0.9122469589
H 1.3809454699 -3.0925253038 -0.8140479868
Cl -2.001211557 0.7066512823 1.1428622313
Cs 0.914763385 1.7592828659 0.1709700925
8

O 3.0402732545 0.3297537883 -2.0968885722
H 3.5268874823 0.1663054762 -2.9077234229
H 2.213507819 -0.1967516491 -2.1721347496
O -0.1618083644 -3.4915509963 0.3960953068
H 0.6181948106 -4.0355018836 0.5243433586
H -0.0078756963 -3.0008436933 -0.4314957449
Cl 0.5023161116 -1.4026330199 -1.8991906394
Cs -1.4109999838 0.6169188327 -0.1511181069
8

O -0.8233800595 -1.3030329214 2.0394225863
H 0.0017257442 -1.0200470533 2.4587732062
H -0.6178228796 -2.1575511628 1.6195083565
O 2.7380128176 -1.3032502859 0.3806261602
H 3.2923067123 -0.7666286245 -0.1987223997
H 1.9687385058 -1.5013203155 -0.1834291025
Cl 0.5023161116 -1.4026330199 -1.8991906394
Cs -1.4109999838 0.6169188327 -0.1511181069
8

O 0.8922190887 1.67127825 -2.0003696386
H 1.5169725532 0.9464333876 -2.1373034946
H 1.2352678576 2.1754043488 -1.2450493879
O -0.8827639263 1.5525582766 1.2843126618
H -0.1414708661 2.1526757019 1.1150821794
H -0.4948907484 0.8147124671 1.7791267224
Cl 0.4760744421 -1.36387922 1.7677067524
Cs -1.0712674496 -0.396978428 -0.9979283713
8

O 1.8573558287 -1.0421069017 -2.2046322855
H 2.2983751938 -1.3950289262 -2.9801037319
H 2.3635486753 -1.3689727052 -1.4314525299
O -0.8827639263 1.5525582766 1.2843126618
H -0.1414708661 2.1526757019 1.1150821794
H -0.4948907484 0.8147124671 1.7791267224
Cl 0.4760744421 -1.36387922 1.7677067524
Cs -1.0712674496 -0.396978428 -0.9979283713
8

O 1.6267512932 2.8227930742 0.5100976493
H 1.98533383 3.6750391138 0.7644821586
H 2.1616189082 2.1360575875 0.9746864841
O -0.8827639263 1.5525582766 1.2843126618
H -0.1414708661 2.1526757019 1.1150821794
H -0.4948907484 0.8147124671 1.7791267224
Cl 0.4760744421 -1.36387922 1.7677067524
Cs -1.0712674496 -0.396978428 -0.9979283713
8

O 2.8472503501 0.7699040253 1.7560227391
H 3.3626185983 0.1864579682 1.1861551428
H 2.0968313481 0.2034814475 2.0150706785
O 3.0243421676 -1.7599387787 0.1706782299
H 3.4897610651 -2.5690969857 0.3942549936
H 2.2031798798 -1.7601176458 0.721943131
Cl 0.4760744421 -1.36387922 1.7677067524
Cs -1.0712674496 -0.396978428 -0.9979283713
8

O 1.8573558287 -1.0421069017 -2.2046322855
H 2.2983751938 -1.3950289262 -2.9801037319
H 2.3635486753 -1.3689727052 -1.4314525299
O 2.8472503501 0.7699040253 1.7560227391
H 3.3626185983 0.1864579682 1.1861551428
H 2.0968313481 0.2034814475 2.0150706785
Cl 0.4760744421 -1.36387922 1.7677067524
Cs -1.0712674496 -0.396978428 -0.9979283713
8

O -0.6959516203 0.0430022832 -2.5212435091
H -0.6936136297 -0.9235056214 -2.580950247
H -1.6078466616 0.2562683521 -2.2690202026
O 2.6326529637 -0.3707218388 1.9736441577
H 3.159699719 -0.7349611827 1.2494189854
H 2.0361062497 -1.0836694631 2.2420632261
Cl -1.7966321555 1.3367626044 1.2630939218
Cs 1.114109862 1.1015252156 -0.291932728
8

O -3.2499290073 0.4655724227 -1.2529425666
H -4.044701084 0.970476583 -1.4401572616
H -2.867875564 0.8585144463 -0.4307226717
O -0.6959516203 0.0430022832 -2.5212435091
H -0.6936136297 -0.9235056214 -2.580950247
H -1.6078466616 0.2562683521 -2.2690202026
Cl -1.7966321555 1.3367626044 1.2630939218
Cs 1.114109862 1.1015252156 -0.291932728
8

O -0.9282714537 -2.8220706656 -2.0423596015
H -1.1465650947 -3.5688198678 -2.6033743897
H -1.7051348013 -2.6747791525 -1.4435000955
O -0.6959516203 0.0430022832 -2.5212435091
H -0.6936136297 -0.9235056214 -2.580950247
H -1.6078466616 0.2562683521 -2.2690202026
Cl -1.7966321555 1.3367626044 1.2630939218
Cs 1.114109862 1.1015252156 -0.291932728
