2

Cs -2.149999999999999 0.0 0.0
F 4.529185933399999 0.0 0.0
2

Cs -1.5500000000000005 0.0 0.0
F 3.9291859334 0.0 0.0
2

Cs -0.39999999999999974 0.0 0.0
F 2.7791859333999995 0.0 0.0
2

Cs -1.8999999999999995 0.0 0.0
F 4.279185933399999 0.0 0.0
2

Cs -0.14999999999999997 0.0 0.0
F 2.5291859333999995 0.0 0.0
2

Cs -1.75 0.0 0.0
F 4.1291859334 0.0 0.0
2

Cs -0.8500000000000002 0.0 0.0
F 3.2291859333999997 0.0 0.0
2

Cs 0.25000000000000006 0.0 0.0
F 2.1291859333999996 0.0 0.0
2

Cs 0.10000000000000007 0.0 0.0
F 2.2791859333999995 0.0 0.0
2

Cs -0.45000000000000046 0.0 0.0
F 2.8291859334000002 0.0 0.0
2

Cs -1.4 0.0 0.0
F 3.7791859333999995 0.0 0.0
2

Cs -0.7000000000000002 0.0 0.0
F 3.0791859334 0.0 0.0
2

Cs -0.10000000000000034 0.0 0.0
F 2.4791859334 0.0 0.0
2

Cs -1.3 0.0 0.0
F 3.6791859334 0.0 0.0
2

Cs -2.149999999999999 0.0 0.0
F 4.529185933399999 0.0 0.0
2

Cs -2.3 0.0 0.0
F 4.679185933399999 0.0 0.0
2

Cs -0.5000000000000001 0.0 0.0
F 2.8791859333999996 0.0 0.0
2

Cs -0.3500000000000001 0.0 0.0
F 2.7291859333999997 0.0 0.0
2

Cs -2.3500000000000005 0.0 0.0
F 4.7291859334 0.0 0.0
2

Cs -0.65 0.0 0.0
F 3.0291859333999995 0.0 0.0
2

Cs 0.25000000000000006 0.0 0.0
F 2.1291859333999996 0.0 0.0
2

Cs 0.0499999999999999 0.0 0.0
F 2.3291859334 0.0 0.0
2

Cs -0.39999999999999974 0.0 0.0
F 2.7791859333999995 0.0 0.0
2

Cs -2.1999999999999997 0.0 0.0
F 4.5791859334 0.0 0.0
2

Cs -0.24999999999999978 0.0 0.0
F 2.629185933399999 0.0 0.0
2

Cs -2.6 0.0 0.0
F 4.9791859334 0.0 0.0
2

Cs -2.149999999999999 0.0 0.0
F 4.529185933399999 0.0 0.0
2

Cs -1.6500000000000001 0.0 0.0
F 4.0291859334 0.0 0.0
2

Cs -1.9500000000000002 0.0 0.0
F 4.3291859334 0.0 0.0
2

Cs -2.7000000000000006 0.0 0.0
F 5.0791859334 0.0 0.0
2

Cs -1.4500000000000002 0.0 0.0
F 3.8291859334 0.0 0.0
2

Cs 0.25000000000000006 0.0 0.0
F 2.1291859333999996 0.0 0.0
2

Cs -0.65 0.0 0.0
F 3.0291859333999995 0.0 0.0
2

Cs -0.049999999999999635 0.0 0.0
F 2.4291859333999994 0.0 0.0
2

Cs -0.9000000000000004 0.0 0.0
F 3.2791859334 0.0 0.0
2

Cs 0.10000000000000007 0.0 0.0
F 2.2791859333999995 0.0 0.0
2

Cs -0.9000000000000004 0.0 0.0
F 3.2791859334 0.0 0.0
2

Cs -0.5499999999999997 0.0 0.0
F 2.9291859333999994 0.0 0.0
2

Cs -0.049999999999999635 0.0 0.0
F 2.4291859333999994 0.0 0.0
2

Cs 0.0499999999999999 0.0 0.0
F 2.3291859334 0.0 0.0
2

Cs -2.5 0.0 0.0
F 4.8791859334 0.0 0.0
2

Cs -1.0999999999999999 0.0 0.0
F 3.4791859333999997 0.0 0.0
2

Cs -1.75 0.0 0.0
F 4.1291859334 0.0 0.0
2

Cs -2.400000000000001 0.0 0.0
F 4.7791859334 0.0 0.0
2

Cs -0.95 0.0 0.0
F 3.3291859334 0.0 0.0
2

Cs -2.05 0.0 0.0
F 4.429185933399999 0.0 0.0
2

Cs -1.4500000000000002 0.0 0.0
F 3.8291859334 0.0 0.0
2

Cs -1.8500000000000003 0.0 0.0
F 4.2291859334 0.0 0.0
2

Cs -2.1999999999999997 0.0 0.0
F 4.5791859334 0.0 0.0
2

Cs -0.5499999999999997 0.0 0.0
F 2.9291859333999994 0.0 0.0
5

O -2.11469698 2.2570782186 0.1470497455
H -2.8061024294 2.2437279722 0.8123242608
H -1.278844812 1.9383359002 0.6104920818
F -0.0345877933 1.2500547672 1.123892763
Cs 0.6859450787 -0.4269132429 -1.0670003441
5

O 1.4531415573 1.0416131423 -2.1326160373
H 1.7441505691 1.7330851548 -2.7287021284
H 1.4346300146 1.4313718458 -1.2204787801
F 1.1593539153 1.6713321318 0.3441779613
Cs -1.0137485219 -0.3255797559 -0.6686407058
5

O -0.0730886259 0.5690192977 2.9903776335
H 0.3732790879 0.6142758925 3.8381125542
H -0.9141352919 0.0596158836 3.1328086747
F -2.1646343617 -0.7816452121 0.4838726271
Cs 0.7218469521 -0.4838439572 0.0340096865
5

O 0.0846095397 -3.0550640108 -1.3496759384
H 0.2290081946 -3.9771222777 -1.5644288801
H 0.9710826234 -2.6410188551 -1.2867363302
F 1.1593539153 1.6713321318 0.3441779613
Cs -1.0137485219 -0.3255797559 -0.6686407058
5

O 2.0338511515 -1.3651012986 1.5572095951
H 1.8639990382 -0.5070350146 1.9603443465
H 1.2120820367 -1.5507703384 1.0315727863
F -0.1355301853 -1.5466460379 0.1368233533
Cs -1.2030899289 0.9137396549 0.3271920414
5

O -3.8171326289 1.5679969724 1.3606541729
H -4.4012038672 1.2520132095 0.6639947081
H -3.445724715 0.7629954789 1.7715675814
F -0.1560045055 0.4367840592 1.8080881725
Cs 1.0555639082 -1.0717196209 -0.37313316
5

O -3.5147659036 -1.1793862637 0.3106805826
H -4.083057654 -1.8995479069 0.0320545446
H -3.2136035863 -0.7348028537 -0.5003971499
F -0.0345877933 1.2500547672 1.123892763
Cs 0.6859450787 -0.4269132429 -1.0670003441
5

O -2.0213169386 1.5907506842 -0.5657401518
H -1.7050983387 2.1495985383 0.1589974767
H -2.2286445558 0.713647547 -0.1588273611
F -2.1646343617 -0.7816452121 0.4838726271
Cs 0.7218469521 -0.4838439572 0.0340096865
5

O -0.7957025219 3.6803633024 -0.0099966074
H -0.7348065233 4.5418712056 0.4064157725
H 0.1098803522 3.3079513907 0.0049814143
F 0.7740431535 0.378101738 1.6554071741
Cs -0.6097789249 -0.9846861875 -0.4208340325
5

O -3.8171326289 1.5679969724 1.3606541729
H -4.4012038672 1.2520132095 0.6639947081
H -3.445724715 0.7629954789 1.7715675814
F -0.1560045055 0.4367840592 1.8080881725
Cs 1.0555639082 -1.0717196209 -0.37313316
5

O 3.557110664 0.2667562464 -0.0238104554
H 3.1079004931 0.3303689822 -0.8818641421
H 3.4344561026 -0.6707229598 0.2206050393
F 0.4432698453 -1.4191070623 -0.5763517727
Cs -1.8142013315 0.1960840842 -0.3255119315
5

O 3.5612550085 1.4817332069 0.8306184077
H 4.3492400447 1.9536875544 1.103257564
H 2.8317246124 2.1340942978 0.8332691268
F -0.9815157386 -0.6220685298 1.3939648853
Cs 1.3986549508 -0.3951015582 -0.2397784816
5

O -2.539253967 -0.9004665368 2.3566766565
H -2.1576553974 -1.6760644517 1.9169545491
H -1.7851533431 -0.3350173955 2.5981672394
F -0.0121814216 1.8470994911 -1.4967476926
Cs 0.6616493914 -0.5416840046 -0.1225818947
5

O -1.1094533866 -2.8044892924 -0.7408188113
H -1.6852794371 -3.5107778614 -1.0351493945
H -1.6899218472 -2.1359722943 -0.3040315989
F -2.1646343617 -0.7816452121 0.4838726271
Cs 0.7218469521 -0.4838439572 0.0340096865
5

O 0.1669911453 -1.018690545 -2.3924534419
H 0.1139510904 -1.7375957833 -3.0226523024
H -0.2734732349 -1.3311903892 -1.5622215874
F -0.9149348941 -1.2508515451 -0.0803038393
Cs 0.0366212595 1.3754672429 -0.6253236462
5

O -0.0730886259 0.5690192977 2.9903776335
H 0.3732790879 0.6142758925 3.8381125542
H -0.9141352919 0.0596158836 3.1328086747
F -2.1646343617 -0.7816452121 0.4838726271
Cs 0.7218469521 -0.4838439572 0.0340096865
5

O 1.0302593645 2.299819911 0.5566726943
H 1.2003336029 3.1550364414 0.9569600189
H 1.4071068847 1.6090818129 1.1959334755
F 0.0214288966 -1.2930259844 1.4793546341
Cs -1.4589465681 0.4143913864 0.0774560914
5

O 3.96090579 -0.7355303755 -0.2251498001
H 4.846477168 -0.850462271 0.121586975
H 3.33515007 -1.0705743843 0.4613572938
F -0.1355301853 -1.5466460379 0.1368233533
Cs -1.2030899289 0.9137396549 0.3271920414
5

O 1.8058395771 2.8688605953 0.3199267365
H 0.8870508222 3.0236099444 0.5662550256
H 2.1303283473 2.219725294 0.9672431174
F -0.1560045055 0.4367840592 1.8080881725
Cs 1.0555639082 -1.0717196209 -0.37313316
5

O 3.5612550085 1.4817332069 0.8306184077
H 4.3492400447 1.9536875544 1.103257564
H 2.8317246124 2.1340942978 0.8332691268
F -0.9815157386 -0.6220685298 1.3939648853
Cs 1.3986549508 -0.3951015582 -0.2397784816
5

O 1.2366138707 2.8816824371 0.5525066919
H 0.9570046275 2.8398739242 -0.3762065047
H 0.4388658423 2.6534190937 1.0630299114
F -0.9815157386 -0.6220685298 1.3939648853
Cs 1.3986549508 -0.3951015582 -0.2397784816
5

O 2.720900657 0.9010085041 1.7241271604
H 3.3691688105 1.0901560131 2.4046315026
H 1.8278573277 0.9983060874 2.1394631023
F 0.2369571292 0.9883681214 2.3469059246
Cs 0.7250486697 -1.2071727457 0.2986851888
5

O 3.7524284946 0.3020063329 0.1881640114
H 3.7726781346 0.6850967596 -0.6961468829
H 3.3365887214 -0.5691420917 0.0327352286
F 0.1291102967 -1.8827932712 0.2839224702
Cs -1.7887383001 -0.0161471401 -0.0673696755
5

O 1.8870315182 2.6466962534 -0.3953632422
H 1.0098494019 2.8650783393 -0.0529959588
H 2.3282611835 2.1859190704 0.3366157137
F 0.2369571292 0.9883681214 2.3469059246
Cs 0.7250486697 -1.2071727457 0.2986851888
5

O -2.539253967 -0.9004665368 2.3566766565
H -2.1576553974 -1.6760644517 1.9169545491
H -1.7851533431 -0.3350173955 2.5981672394
F -0.0121814216 1.8470994911 -1.4967476926
Cs 0.6616493914 -0.5416840046 -0.1225818947
5

O 3.5612550085 1.4817332069 0.8306184077
H 4.3492400447 1.9536875544 1.103257564
H 2.8317246124 2.1340942978 0.8332691268
F -0.9815157386 -0.6220685298 1.3939648853
Cs 1.3986549508 -0.3951015582 -0.2397784816
5

O 0.1479129846 -0.2593276776 1.8684455968
H 0.7840368626 0.4627917408 1.9776717711
H 0.4783290389 -0.76595124 1.10413898
F 0.4432698453 -1.4191070623 -0.5763517727
Cs -1.8142013315 0.1960840842 -0.3255119315
5

O -0.7184584617 1.3966975116 -1.8716548882
H -0.6854928141 2.2185503477 -2.3626817813
H 0.1999322471 1.0463739151 -1.8568562185
F 1.5083546041 0.1107880351 -1.3853060315
Cs -0.8046088264 -0.6680136628 0.3544513896
5

O -1.7567622062 -2.2764914682 0.0204758037
H -2.0605919711 -1.6212648206 -0.6244851516
H -2.1008427053 -1.9487369847 0.8648721655
F -0.1560045055 0.4367840592 1.8080881725
Cs 1.0555639082 -1.0717196209 -0.37313316
5

O 1.2482224798 3.1420507951 -1.3125998447
H 1.7901601572 3.7677598875 -1.7972016901
H 1.8169758472 2.7491632101 -0.6087426032
F -0.4752889513 -0.3240284053 2.300828602
Cs 1.1440810334 -1.1519007091 0.2036101899
5

O 0.0465669313 -0.0028842441 2.1806130923
H 0.8017552125 -0.5044949157 2.5001476572
H 0.4559546016 0.7463677421 1.7095971985
F 1.1593539153 1.6713321318 0.3441779613
Cs -1.0137485219 -0.3255797559 -0.6686407058
5

O 1.068753951 0.6340999139 1.9494480564
H 1.9353770224 0.2114347796 1.9861357808
H 1.0451655813 1.0299710936 1.0563136686
F 0.7646185453 1.2371461323 -0.67424213
Cs -1.263754134 -0.7507178503 0.6227204582
5

O -1.7620734991 1.7584616105 -0.9369406271
H -2.0361229974 2.5485493625 -1.4031302043
H -0.7763558517 1.7416796208 -0.9635361018
F 0.7646185453 1.2371461323 -0.67424213
Cs -1.263754134 -0.7507178503 0.6227204582
5

O -2.6182370065 -0.8611620417 2.2741892023
H -2.2238626798 -1.5507140573 1.717351047
H -1.9004778169 -0.2110434349 2.3772594802
F 0.9896919209 0.9174446956 -1.7894291874
Cs 1.3789456218 -0.7919906029 0.2728512914
5

O 0.2970565342 2.2477872037 -0.7712022325
H 0.82839873 1.7456959829 -1.4090793556
H 0.8697494081 2.3272321787 0.0089052263
F 0.4432698453 -1.4191070623 -0.5763517727
Cs -1.8142013315 0.1960840842 -0.3255119315
5

O 2.0868520419 1.4659692199 0.8682144457
H 2.5761926533 0.7216034578 1.2368240134
H 1.9324431525 1.1828773779 -0.0563337667
F 1.5083546041 0.1107880351 -1.3853060315
Cs -0.8046088264 -0.6680136628 0.3544513896
5

O 2.2959557183 1.7456824559 0.1718974299
H 2.8444042882 2.4413845593 0.5346980119
H 1.4566050988 1.7363632655 0.6967748021
F -0.0345877933 1.2500547672 1.123892763
Cs 0.6859450787 -0.4269132429 -1.0670003441
5

O 1.9651067391 -1.7828626742 1.3379487662
H 2.2811123322 -2.2417450524 2.1181101339
H 1.5384869904 -0.9249079922 1.6469323939
F 0.7740431535 0.378101738 1.6554071741
Cs -0.6097789249 -0.9846861875 -0.4208340325
5

O 1.3739248967 -2.4577921109 -0.2638763496
H 1.353149023 -3.4124577281 -0.1850974056
H 0.8210378566 -2.0794855905 0.4957208183
F 0.0214288966 -1.2930259844 1.4793546341
Cs -1.4589465681 0.4143913864 0.0774560914
5

O -1.1290144538 1.8666926729 1.6663772688
H -1.483889946 2.1088574999 2.5232491891
H -1.080174608 0.8594013761 1.6364276493
F -0.9815157386 -0.6220685298 1.3939648853
Cs 1.3986549508 -0.3951015582 -0.2397784816
5

O -0.454814966 0.1561878522 2.1397998432
H -1.3065384812 0.5929822672 2.2390212672
H -0.6240809015 -0.5545606765 1.4864565015
F -0.9149348941 -1.2508515451 -0.0803038393
Cs 0.0366212595 1.3754672429 -0.6253236462
5

O -1.7089444883 2.4142862939 0.4501299578
H -2.55449737 1.9584662262 0.3335143078
H -1.1905355671 2.2528169988 -0.368534827
F -0.0121814216 1.8470994911 -1.4967476926
Cs 0.6616493914 -0.5416840046 -0.1225818947
5

O 0.1669911453 -1.018690545 -2.3924534419
H 0.1139510904 -1.7375957833 -3.0226523024
H -0.2734732349 -1.3311903892 -1.5622215874
F -0.9149348941 -1.2508515451 -0.0803038393
Cs 0.0366212595 1.3754672429 -0.6253236462
5

O -1.1881223852 -1.6669179971 -1.1005735349
H -2.0299216701 -1.4034399338 -1.4896339665
H -1.2748218047 -1.4087160034 -0.1638456106
F -0.9815157386 -0.6220685298 1.3939648853
Cs 1.3986549508 -0.3951015582 -0.2397784816
5

O -0.0730886259 0.5690192977 2.9903776335
H 0.3732790879 0.6142758925 3.8381125542
H -0.9141352919 0.0596158836 3.1328086747
F -2.1646343617 -0.7816452121 0.4838726271
Cs 0.7218469521 -0.4838439572 0.0340096865
5

O 1.8058395771 2.8688605953 0.3199267365
H 0.8870508222 3.0236099444 0.5662550256
H 2.1303283473 2.219725294 0.9672431174
F -0.1560045055 0.4367840592 1.8080881725
Cs 1.0555639082 -1.0717196209 -0.37313316
5

O 1.3792163201 0.4598669646 -2.1094668269
H 0.5953258301 0.6770160958 -2.6346175466
H 1.6358284395 1.293425433 -1.6760020311
F 0.2369571292 0.9883681214 2.3469059246
Cs 0.7250486697 -1.2071727457 0.2986851888
5

O 3.5565181447 -0.1963656147 -0.3098616161
H 3.4616507144 0.6584635573 0.1268763575
H 3.1636600543 -0.8398543631 0.3120536786
F 0.7740431535 0.378101738 1.6554071741
Cs -0.6097789249 -0.9846861875 -0.4208340325
5

O -1.5857325589 -2.0700548617 -0.7193564321
H -1.8562336233 -1.5688827145 -1.5018523502
H -2.1421451303 -1.7207015225 -0.0027240145
F -0.4752889513 -0.3240284053 2.300828602
Cs 1.1440810334 -1.1519007091 0.2036101899
5

O -2.8037138601 -1.025056659 -1.448130271
H -3.4211144976 -0.5141130347 -0.9010459923
H -2.3080390851 -0.360404806 -1.9658984612
F 0.9896919209 0.9174446956 -1.7894291874
Cs 1.3789456218 -0.7919906029 0.2728512914
8

O -2.4223214597 -1.2508304659 -1.3417762925
H -3.0211921377 -0.6087834629 -0.9256028382
H -1.9533643381 -0.7927839839 -2.0674042851
O -0.7488093527 0.0376396335 -3.1047217201
H -1.0250916087 0.3307737086 -3.9744823494
H -0.4778707591 0.8549625722 -2.6008538008
F -0.0121814216 1.8470994911 -1.4967476926
Cs 0.6616493914 -0.5416840046 -0.1225818947
8

O 1.939996023 1.8043965891 1.5107754987
H 2.3616477816 2.4669345175 2.0614151902
H 2.6667241198 1.270262471 1.1111384827
O 3.7524284946 0.3020063329 0.1881640114
H 3.7726781346 0.6850967596 -0.6961468829
H 3.3365887214 -0.5691420917 0.0327352286
F 0.1291102967 -1.8827932712 0.2839224702
Cs -1.7887383001 -0.0161471401 -0.0673696755
8

O -1.7567622062 -2.2764914682 0.0204758037
H -2.0605919711 -1.6212648206 -0.6244851516
H -2.1008427053 -1.9487369847 0.8648721655
O -1.8456803081 0.1136050333 -1.5492059284
H -1.8886586095 0.5456128379 -2.4059439909
H -1.7260607359 0.8462778718 -0.9133411156
F -0.1560045055 0.4367840592 1.8080881725
Cs 1.0555639082 -1.0717196209 -0.37313316
8

O 2.3080609714 0.2933893816 -2.427972154
H 2.3851430145 0.144409918 -3.3716546634
H 2.2763427442 -0.5908897146 -1.9984387199
O -0.0380655993 -0.2060676643 2.3547868755
H 0.67250416 0.4435603574 2.2660521662
H 0.2094107958 -0.9397734048 1.7552834489
F 0.1291102967 -1.8827932712 0.2839224702
Cs -1.7887383001 -0.0161471401 -0.0673696755
8

O -1.3013020347 2.1936483452 0.2955802009
H -2.1969123291 2.2361597119 0.6801168846
H -0.8117207837 1.5826335638 0.9035467215
O -2.3974976861 -0.6475228252 2.3517279781
H -2.4940492894 -0.8944033428 3.2740015336
H -1.4901029105 -0.2454548383 2.250598502
F -0.1560045055 0.4367840592 1.8080881725
Cs 1.0555639082 -1.0717196209 -0.37313316
8

O -1.7089444883 2.4142862939 0.4501299578
H -2.55449737 1.9584662262 0.3335143078
H -1.1905355671 2.2528169988 -0.368534827
O 1.4561756077 3.4272550466 -0.0785692525
H 0.8354415427 4.0707641751 0.2721172215
H 0.9300039212 2.8946001572 -0.7288532271
F -0.0121814216 1.8470994911 -1.4967476926
Cs 0.6616493914 -0.5416840046 -0.1225818947
8

O -1.3013020347 2.1936483452 0.2955802009
H -2.1969123291 2.2361597119 0.6801168846
H -0.8117207837 1.5826335638 0.9035467215
O -2.3974976861 -0.6475228252 2.3517279781
H -2.4940492894 -0.8944033428 3.2740015336
H -1.4901029105 -0.2454548383 2.250598502
F -0.1560045055 0.4367840592 1.8080881725
Cs 1.0555639082 -1.0717196209 -0.37313316
8

O -1.3013020347 2.1936483452 0.2955802009
H -2.1969123291 2.2361597119 0.6801168846
H -0.8117207837 1.5826335638 0.9035467215
O -2.3974976861 -0.6475228252 2.3517279781
H -2.4940492894 -0.8944033428 3.2740015336
H -1.4901029105 -0.2454548383 2.250598502
F -0.1560045055 0.4367840592 1.8080881725
Cs 1.0555639082 -1.0717196209 -0.37313316
8

O 2.02763322 -2.7471006032 -0.2740845317
H 2.4549154429 -2.367324407 -1.054269458
H 2.0071466098 -2.0030845483 0.3645492896
O 3.0314744583 -0.7969044815 -2.2241336008
H 3.1793161537 -0.8189370598 -3.1712827127
H 2.2024075107 -0.2957303902 -2.0766518966
F 1.6674305838 -0.5104051908 1.1177001786
Cs -1.2208070199 -0.6470239749 0.9448986303
8

O 3.2967204801 1.8498350101 -0.5771017018
H 3.4120809513 2.7119576001 -0.1734992495
H 2.3236177893 1.7427949793 -0.7114123401
O -1.7620734991 1.7584616105 -0.9369406271
H -2.0361229974 2.5485493625 -1.4031302043
H -0.7763558517 1.7416796208 -0.9635361018
F 0.7646185453 1.2371461323 -0.67424213
Cs -1.263754134 -0.7507178503 0.6227204582
8

O -0.7488093527 0.0376396335 -3.1047217201
H -1.0250916087 0.3307737086 -3.9744823494
H -0.4778707591 0.8549625722 -2.6008538008
O -0.4676800839 0.9645584385 2.3950379689
H 0.4423333878 1.2644633479 2.5190682778
H -0.8919035574 1.6080273035 1.7836111017
F -0.0121814216 1.8470994911 -1.4967476926
Cs 0.6616493914 -0.5416840046 -0.1225818947
8

O -1.7515534116 1.2572685961 1.17608347
H -1.6559778075 2.1604316624 0.8335814374
H -0.9047660989 1.0880110523 1.6273677636
O 1.9651067391 -1.7828626742 1.3379487662
H 2.2811123322 -2.2417450524 2.1181101339
H 1.5384869904 -0.9249079922 1.6469323939
F 0.7740431535 0.378101738 1.6554071741
Cs -0.6097789249 -0.9846861875 -0.4208340325
8

O 1.5778186957 2.2423170945 0.0222464859
H 1.5446976197 1.7886727894 -0.8287491616
H 1.3094900039 1.5634147521 0.6928821863
O -1.7515534116 1.2572685961 1.17608347
H -1.6559778075 2.1604316624 0.8335814374
H -0.9047660989 1.0880110523 1.6273677636
F 0.7740431535 0.378101738 1.6554071741
Cs -0.6097789249 -0.9846861875 -0.4208340325
8

O 1.5778186957 2.2423170945 0.0222464859
H 1.5446976197 1.7886727894 -0.8287491616
H 1.3094900039 1.5634147521 0.6928821863
O -1.7515534116 1.2572685961 1.17608347
H -1.6559778075 2.1604316624 0.8335814374
H -0.9047660989 1.0880110523 1.6273677636
F 0.7740431535 0.378101738 1.6554071741
Cs -0.6097789249 -0.9846861875 -0.4208340325
8

O 2.0412818538 -0.0454299657 -1.651505902
H 2.7108444597 0.1734940036 -0.9877070602
H 1.376090692 0.6790602232 -1.5811702221
O -2.3183624433 1.4393158746 -1.1822072095
H -2.8283531162 1.8970701384 -1.8516501762
H -1.380738052 1.7287712809 -1.2874335875
F 0.238726636 1.7592753603 -1.0331508214
Cs -0.770771261 -0.3085518156 0.7302517054
8

O 2.2959557183 1.7456824559 0.1718974299
H 2.8444042882 2.4413845593 0.5346980119
H 1.4566050988 1.7363632655 0.6967748021
O -0.8020204282 -1.3196963437 1.3698433596
H -1.7570047442 -1.3772008378 1.2274675522
H -0.6219891542 -0.3772167094 1.554852128
F -0.0345877933 1.2500547672 1.123892763
Cs 0.6859450787 -0.4269132429 -1.0670003441
8

O -1.1290144538 1.8666926729 1.6663772688
H -1.483889946 2.1088574999 2.5232491891
H -1.080174608 0.8594013761 1.6364276493
O -1.1881223852 -1.6669179971 -1.1005735349
H -2.0299216701 -1.4034399338 -1.4896339665
H -1.2748218047 -1.4087160034 -0.1638456106
F -0.9815157386 -0.6220685298 1.3939648853
Cs 1.3986549508 -0.3951015582 -0.2397784816
8

O 0.4029656097 1.8531019361 -0.9410630389
H 0.9056004642 2.0308006259 -0.130397307
H 1.0387925829 1.4191164989 -1.5328249514
O -0.0380655993 -0.2060676643 2.3547868755
H 0.67250416 0.4435603574 2.2660521662
H 0.2094107958 -0.9397734048 1.7552834489
F 0.1291102967 -1.8827932712 0.2839224702
Cs -1.7887383001 -0.0161471401 -0.0673696755
8

O 2.4984076628 1.3939520661 -1.613514301
H 2.9655945949 2.0593062991 -2.122101201
H 2.0306944199 1.860059316 -0.8902222684
O 1.918623079 0.3961098742 2.0606091879
H 2.6633543793 0.0155797392 1.5577619902
H 1.2114241831 -0.2932359741 1.9872306036
F 0.0214288966 -1.2930259844 1.4793546341
Cs -1.4589465681 0.4143913864 0.0774560914
8

O -2.0213169386 1.5907506842 -0.5657401518
H -1.7050983387 2.1495985383 0.1589974767
H -2.2286445558 0.713647547 -0.1588273611
O -1.1094533866 -2.8044892924 -0.7408188113
H -1.6852794371 -3.5107778614 -1.0351493945
H -1.6899218472 -2.1359722943 -0.3040315989
F -2.1646343617 -0.7816452121 0.4838726271
Cs 0.7218469521 -0.4838439572 0.0340096865
8

O 0.1525306201 2.9464757414 -1.807506687
H 0.1680494405 3.6896610482 -2.413095767
H -0.7606443423 2.8999600573 -1.4351617382
O -0.2002332383 -2.7629881647 0.6510041114
H -0.8990481049 -3.4199762961 0.6534073544
H -0.5450972134 -2.0245316661 1.1934136064
F -1.1277416595 -0.4508949939 1.5810567034
Cs 0.4023205501 -0.1882118822 -0.9292876069
8

O 0.9193960536 -2.3522051507 -0.9345137905
H 0.9885267441 -3.0379014835 -1.6005724061
H 1.369826362 -1.553066424 -1.3116181234
O -2.3183624433 1.4393158746 -1.1822072095
H -2.8283531162 1.8970701384 -1.8516501762
H -1.380738052 1.7287712809 -1.2874335875
F 0.238726636 1.7592753603 -1.0331508214
Cs -0.770771261 -0.3085518156 0.7302517054
8

O 3.5565181447 -0.1963656147 -0.3098616161
H 3.4616507144 0.6584635573 0.1268763575
H 3.1636600543 -0.8398543631 0.3120536786
O 1.5778186957 2.2423170945 0.0222464859
H 1.5446976197 1.7886727894 -0.8287491616
H 1.3094900039 1.5634147521 0.6928821863
F 0.7740431535 0.378101738 1.6554071741
Cs -0.6097789249 -0.9846861875 -0.4208340325
8

O 1.8239779281 -2.3454146684 0.9173973719
H 2.3122107933 -3.0056139297 1.4120508971
H 2.4928067338 -1.759034745 0.5170831992
O 0.918385137 -0.0557736896 -2.1725829077
H 1.8390989376 -0.1669998912 -1.9110738038
H 0.6801093467 0.848038868 -1.8803519009
F 0.0917525277 2.0692892867 -0.7783256005
Cs -0.6300969802 -0.5938596685 0.3762690963
8

O -2.2370408993 1.532890431 -1.1226361116
H -2.6818137111 0.8840005985 -0.5572893216
H -1.9313392823 1.0147241805 -1.8839870683
O -0.5972564757 -0.162706558 -2.7272001815
H -0.6565337199 -0.6740337026 -3.5349545519
H -0.6283674453 -0.8090512909 -1.9632316822
F -0.6019371742 -1.3716928677 -0.521512221
Cs 0.5436824492 1.095397148 0.0216199126
8

O 0.9193960536 -2.3522051507 -0.9345137905
H 0.9885267441 -3.0379014835 -1.6005724061
H 1.369826362 -1.553066424 -1.3116181234
O -2.3183624433 1.4393158746 -1.1822072095
H -2.8283531162 1.8970701384 -1.8516501762
H -1.380738052 1.7287712809 -1.2874335875
F 0.238726636 1.7592753603 -1.0331508214
Cs -0.770771261 -0.3085518156 0.7302517054
8

O -1.3013020347 2.1936483452 0.2955802009
H -2.1969123291 2.2361597119 0.6801168846
H -0.8117207837 1.5826335638 0.9035467215
O -2.3974976861 -0.6475228252 2.3517279781
H -2.4940492894 -0.8944033428 3.2740015336
H -1.4901029105 -0.2454548383 2.250598502
F -0.1560045055 0.4367840592 1.8080881725
Cs 1.0555639082 -1.0717196209 -0.37313316
8

O 0.2662809423 2.0022104985 -1.9642547363
H 0.3032079 2.4356278328 -2.8188809554
H -0.6903636755 1.9859254485 -1.7052442833
O 1.2366138707 2.8816824371 0.5525066919
H 0.9570046275 2.8398739242 -0.3762065047
H 0.4388658423 2.6534190937 1.0630299114
F -0.9815157386 -0.6220685298 1.3939648853
Cs 1.3986549508 -0.3951015582 -0.2397784816
8

O 1.0302593645 2.299819911 0.5566726943
H 1.2003336029 3.1550364414 0.9569600189
H 1.4071068847 1.6090818129 1.1959334755
O 2.4984076628 1.3939520661 -1.613514301
H 2.9655945949 2.0593062991 -2.122101201
H 2.0306944199 1.860059316 -0.8902222684
F 0.0214288966 -1.2930259844 1.4793546341
Cs -1.4589465681 0.4143913864 0.0774560914
8

O -3.2119801064 -1.2704289736 0.2145165669
H -3.5765971773 -1.854502383 -0.4523796829
H -2.2362762406 -1.4622204848 0.2437039724
O -2.9695760736 1.4197944473 -0.1344504378
H -3.7920067553 1.910869999 -0.0936784195
H -3.2090983621 0.4716740001 -0.0232811517
F -0.6446847076 -1.3931684954 0.1909598584
Cs 1.5934765162 0.2155899237 -0.0531375915
8

O 1.0302593645 2.299819911 0.5566726943
H 1.2003336029 3.1550364414 0.9569600189
H 1.4071068847 1.6090818129 1.1959334755
O 2.4984076628 1.3939520661 -1.613514301
H 2.9655945949 2.0593062991 -2.122101201
H 2.0306944199 1.860059316 -0.8902222684
F 0.0214288966 -1.2930259844 1.4793546341
Cs -1.4589465681 0.4143913864 0.0774560914
8

O -2.2460918184 1.9340871254 0.2818946833
H -2.8102290531 2.7060775231 0.2348564602
H -1.4013410547 2.1713566871 -0.1794483058
O 0.918385137 -0.0557736896 -2.1725829077
H 1.8390989376 -0.1669998912 -1.9110738038
H 0.6801093467 0.848038868 -1.8803519009
F 0.0917525277 2.0692892867 -0.7783256005
Cs -0.6300969802 -0.5938596685 0.3762690963
8

O 1.939996023 1.8043965891 1.5107754987
H 2.3616477816 2.4669345175 2.0614151902
H 2.6667241198 1.270262471 1.1111384827
O 3.7524284946 0.3020063329 0.1881640114
H 3.7726781346 0.6850967596 -0.6961468829
H 3.3365887214 -0.5691420917 0.0327352286
F 0.1291102967 -1.8827932712 0.2839224702
Cs -1.7887383001 -0.0161471401 -0.0673696755
8

O 1.4531415573 1.0416131423 -2.1326160373
H 1.7441505691 1.7330851548 -2.7287021284
H 1.4346300146 1.4313718458 -1.2204787801
O -1.2218842949 2.6902473288 -0.1345552462
H -1.4047568245 3.591294717 0.132629803
H -0.2881965649 2.5175567364 0.1147652779
F 1.1593539153 1.6713321318 0.3441779613
Cs -1.0137485219 -0.3255797559 -0.6686407058
8

O 0.4006600092 -0.5396818768 -2.0577097057
H 1.1506799692 0.0649877944 -2.1480940212
H 0.764465807 -1.3274502125 -1.6148687286
O 1.0302593645 2.299819911 0.5566726943
H 1.2003336029 3.1550364414 0.9569600189
H 1.4071068847 1.6090818129 1.1959334755
F 0.0214288966 -1.2930259844 1.4793546341
Cs -1.4589465681 0.4143913864 0.0774560914
8

O -3.5147659036 -1.1793862637 0.3106805826
H -4.083057654 -1.8995479069 0.0320545446
H -3.2136035863 -0.7348028537 -0.5003971499
O -2.2808016619 0.3937924325 -1.6939459716
H -2.743133439 0.7236226541 -2.4673420943
H -2.2822044034 1.1466870892 -1.0350126491
F -0.0345877933 1.2500547672 1.123892763
Cs 0.6859450787 -0.4269132429 -1.0670003441
8

O -3.838924772 0.4408230524 0.4149862496
H -4.780391047 0.5284626075 0.57619079
H -3.4593780793 -0.0359223591 1.1938793611
O 2.2617365663 1.5388952241 1.6465601699
H 3.1000797381 1.7557545948 2.0583950499
H 2.0369889799 2.3039085674 1.060525084
F -0.0121814216 1.8470994911 -1.4967476926
Cs 0.6616493914 -0.5416840046 -0.1225818947
8

O -1.4235698704 -0.9202667554 2.7741686251
H -1.6477063464 -1.1387322967 3.6802248357
H -0.7881077967 -0.1613068015 2.804257737
O -2.85782556 0.607618972 0.8734777431
H -2.2922225297 1.3748319186 1.0348901312
H -2.6224734839 -0.0084439252 1.5883435176
F 0.2369571292 0.9883681214 2.3469059246
Cs 0.7250486697 -1.2071727457 0.2986851888
8

O -3.5147659036 -1.1793862637 0.3106805826
H -4.083057654 -1.8995479069 0.0320545446
H -3.2136035863 -0.7348028537 -0.5003971499
O -2.2808016619 0.3937924325 -1.6939459716
H -2.743133439 0.7236226541 -2.4673420943
H -2.2822044034 1.1466870892 -1.0350126491
F -0.0345877933 1.2500547672 1.123892763
Cs 0.6859450787 -0.4269132429 -1.0670003441
8

O -2.0213169386 1.5907506842 -0.5657401518
H -1.7050983387 2.1495985383 0.1589974767
H -2.2286445558 0.713647547 -0.1588273611
O -0.3435742698 1.1213753708 -2.5571433171
H -0.8261383524 0.7761058845 -3.3106627988
H -1.0249800863 1.3633120977 -1.8753736038
F -2.1646343617 -0.7816452121 0.4838726271
Cs 0.7218469521 -0.4838439572 0.0340096865
8

O 2.4984076628 1.3939520661 -1.613514301
H 2.9655945949 2.0593062991 -2.122101201
H 2.0306944199 1.860059316 -0.8902222684
O 1.918623079 0.3961098742 2.0606091879
H 2.6633543793 0.0155797392 1.5577619902
H 1.2114241831 -0.2932359741 1.9872306036
F 0.0214288966 -1.2930259844 1.4793546341
Cs -1.4589465681 0.4143913864 0.0774560914
8

O 2.4984076628 1.3939520661 -1.613514301
H 2.9655945949 2.0593062991 -2.122101201
H 2.0306944199 1.860059316 -0.8902222684
O 1.918623079 0.3961098742 2.0606091879
H 2.6633543793 0.0155797392 1.5577619902
H 1.2114241831 -0.2932359741 1.9872306036
F 0.0214288966 -1.2930259844 1.4793546341
Cs -1.4589465681 0.4143913864 0.0774560914
8

O 1.0302593645 2.299819911 0.5566726943
H 1.2003336029 3.1550364414 0.9569600189
H 1.4071068847 1.6090818129 1.1959334755
O 2.4984076628 1.3939520661 -1.613514301
H 2.9655945949 2.0593062991 -2.122101201
H 2.0306944199 1.860059316 -0.8902222684
F 0.0214288966 -1.2930259844 1.4793546341
Cs -1.4589465681 0.4143913864 0.0774560914
8

O 2.3679033045 0.6346958038 2.0082350236
H 2.7605082295 0.7339776203 2.879144028
H 1.3858442996 0.5761638096 2.1375637146
O -3.8171326289 1.5679969724 1.3606541729
H -4.4012038672 1.2520132095 0.6639947081
H -3.445724715 0.7629954789 1.7715675814
F -0.1560045055 0.4367840592 1.8080881725
Cs 1.0555639082 -1.0717196209 -0.37313316
8

O 1.7594816036 2.1592810149 -1.0827270999
H 2.5087489762 2.4466357085 -0.5594894618
H 1.8571666083 1.1651342215 -1.1938245858
O 2.2750209953 -2.1776236426 0.3941667299
H 2.7195158465 -2.8970898831 -0.0562596931
H 2.1594423686 -1.450858954 -0.2892511077
F 1.7250853862 -0.3515325995 -1.2617708046
Cs -0.8541700661 -0.1883957792 -0.4063516149
8

O -1.7567622062 -2.2764914682 0.0204758037
H -2.0605919711 -1.6212648206 -0.6244851516
H -2.1008427053 -1.9487369847 0.8648721655
O -1.8456803081 0.1136050333 -1.5492059284
H -1.8886586095 0.5456128379 -2.4059439909
H -1.7260607359 0.8462778718 -0.9133411156
F -0.1560045055 0.4367840592 1.8080881725
Cs 1.0555639082 -1.0717196209 -0.37313316
8

O 1.4531415573 1.0416131423 -2.1326160373
H 1.7441505691 1.7330851548 -2.7287021284
H 1.4346300146 1.4313718458 -1.2204787801
O -1.2218842949 2.6902473288 -0.1345552462
H -1.4047568245 3.591294717 0.132629803
H -0.2881965649 2.5175567364 0.1147652779
F 1.1593539153 1.6713321318 0.3441779613
Cs -1.0137485219 -0.3255797559 -0.6686407058
8

O -2.6557643175 -0.7012319942 0.6902308924
H -3.300371504 -1.4003730865 0.8070695775
H -1.8655573317 -1.0974166478 0.185419433
O -2.2370408993 1.532890431 -1.1226361116
H -2.6818137111 0.8840005985 -0.5572893216
H -1.9313392823 1.0147241805 -1.8839870683
F -0.6019371742 -1.3716928677 -0.521512221
Cs 0.5436824492 1.095397148 0.0216199126
8

O -0.5679969891 -2.9943951969 -1.2652633116
H -0.5911931908 -3.6178617257 -1.9940085929
H 0.2907090839 -2.5269447416 -1.320235099
O 1.068753951 0.6340999139 1.9494480564
H 1.9353770224 0.2114347796 1.9861357808
H 1.0451655813 1.0299710936 1.0563136686
F 0.7646185453 1.2371461323 -0.67424213
Cs -1.263754134 -0.7507178503 0.6227204582
8

O -0.7184584617 1.3966975116 -1.8716548882
H -0.6854928141 2.2185503477 -2.3626817813
H 0.1999322471 1.0463739151 -1.8568562185
O 2.2985689921 -1.4506508721 0.5641351031
H 2.8146150123 -2.2300856864 0.3519041756
H 2.1690197463 -0.9680053964 -0.2827803996
F 1.5083546041 0.1107880351 -1.3853060315
Cs -0.8046088264 -0.6680136628 0.3544513896
