2

Cs -0.8499999999999996 0.0 0.0
I 4.1971488736 0.0 0.0
2

Cs -2.3499999999999996 0.0 0.0
I 5.6971488736 0.0 0.0
2

Cs -1.550000000000001 0.0 0.0
I 4.897148873600001 0.0 0.0
2

Cs -0.4999999999999997 0.0 0.0
I 3.8471488735999997 0.0 0.0
2

Cs -1.6500000000000006 0.0 0.0
I 4.9971488736000005 0.0 0.0
2

Cs -2.3000000000000007 0.0 0.0
I 5.647148873600001 0.0 0.0
2

Cs -2.5 0.0 0.0
I 5.8471488736 0.0 0.0
2

Cs -0.8000000000000002 0.0 0.0
I 4.1471488736 0.0 0.0
2

Cs -1.0499999999999996 0.0 0.0
I 4.3971488736 0.0 0.0
2

Cs -0.14999999999999986 0.0 0.0
I 3.4971488736 0.0 0.0
2

Cs 0.20000000000000004 0.0 0.0
I 3.1471488736 0.0 0.0
2

Cs -1.4500000000000004 0.0 0.0
I 4.7971488736 0.0 0.0
2

Cs 0.20000000000000004 0.0 0.0
I 3.1471488736 0.0 0.0
2

Cs -1.550000000000001 0.0 0.0
I 4.897148873600001 0.0 0.0
2

Cs 0.2999999999999997 0.0 0.0
I 3.0471488736000003 0.0 0.0
2

Cs -2.099999999999999 0.0 0.0
I 5.4471488736 0.0 0.0
2

Cs -0.049999999999999455 0.0 0.0
I 3.3971488735999995 0.0 0.0
2

Cs -2.6000000000000005 0.0 0.0
I 5.947148873600001 0.0 0.0
2

Cs -1.9999999999999996 0.0 0.0
I 5.3471488736 0.0 0.0
2

Cs 0.20000000000000004 0.0 0.0
I 3.1471488736 0.0 0.0
2

Cs -0.8499999999999996 0.0 0.0
I 4.1971488736 0.0 0.0
2

Cs -2.200000000000001 0.0 0.0
I 5.547148873600001 0.0 0.0
2

Cs 0.20000000000000004 0.0 0.0
I 3.1471488736 0.0 0.0
2

Cs -0.4500000000000003 0.0 0.0
I 3.7971488736000003 0.0 0.0
2

Cs -2.25 0.0 0.0
I 5.5971488736 0.0 0.0
2

Cs -2.0500000000000007 0.0 0.0
I 5.397148873600001 0.0 0.0
2

Cs -1.9999999999999996 0.0 0.0
I 5.3471488736 0.0 0.0
2

Cs -0.9000000000000006 0.0 0.0
I 4.2471488736000005 0.0 0.0
2

Cs -1.9999999999999996 0.0 0.0
I 5.3471488736 0.0 0.0
2

Cs -1.5 0.0 0.0
I 4.8471488736 0.0 0.0
2

Cs -2.6000000000000005 0.0 0.0
I 5.947148873600001 0.0 0.0
2

Cs -1.5999999999999996 0.0 0.0
I 4.9471488736 0.0 0.0
2

Cs -1.5 0.0 0.0
I 4.8471488736 0.0 0.0
2

Cs -1.7500000000000002 0.0 0.0
I 5.0971488736 0.0 0.0
2

Cs -2.7 0.0 0.0
I 6.0471488736 0.0 0.0
2

Cs -1.4500000000000004 0.0 0.0
I 4.7971488736 0.0 0.0
2

Cs -0.14999999999999986 0.0 0.0
I 3.4971488736 0.0 0.0
2

Cs -0.4999999999999997 0.0 0.0
I 3.8471488735999997 0.0 0.0
2

Cs -2.200000000000001 0.0 0.0
I 5.547148873600001 0.0 0.0
2

Cs -0.9000000000000006 0.0 0.0
I 4.2471488736000005 0.0 0.0
2

Cs -1.3500000000000008 0.0 0.0
I 4.697148873600001 0.0 0.0
2

Cs -2.4000000000000004 0.0 0.0
I 5.7471488736000005 0.0 0.0
2

Cs -1.3500000000000008 0.0 0.0
I 4.697148873600001 0.0 0.0
2

Cs -1.3500000000000008 0.0 0.0
I 4.697148873600001 0.0 0.0
2

Cs -2.3499999999999996 0.0 0.0
I 5.6971488736 0.0 0.0
2

Cs -0.6000000000000001 0.0 0.0
I 3.9471488736 0.0 0.0
2

Cs -2.4000000000000004 0.0 0.0
I 5.7471488736000005 0.0 0.0
2

Cs 0.20000000000000004 0.0 0.0
I 3.1471488736 0.0 0.0
2

Cs -1.8499999999999999 0.0 0.0
I 5.1971488736 0.0 0.0
2

Cs -1.7500000000000002 0.0 0.0
I 5.0971488736 0.0 0.0
5

O 1.9849425081 0.8122015123 -2.8274653714
H 2.4902774218 1.4730539792 -2.3359989419
H 2.0244261095 0.0308083265 -2.2520546758
I 2.0021270903 -1.0251470088 0.239607877
Cs -1.4510164944 0.2416531431 -0.1871451493
5

O -1.7735574907 -1.6617395173 -1.4566929835
H -0.8935695869 -1.9333934343 -1.7653655201
H -2.0226627538 -2.3062529073 -0.7731867393
I 2.2323106134 0.4814177674 -0.4540709886
Cs -1.3437574227 1.1472592551 0.0791295318
5

O -1.0136452 0.9411517428 -2.9651274425
H -1.465221306 0.6405892185 -3.7579346002
H -1.3290660029 0.3551213995 -2.2487719561
I -1.8468424467 -1.1410773892 -0.2827837667
Cs 1.7469319336 -0.5136672237 0.5385873053
5

O 1.534706073 -1.7406517053 2.1496608596
H 2.2232427022 -1.7160902486 2.8186975338
H 1.8217633364 -1.1118189995 1.4549660183
I 2.2323106134 0.4814177674 -0.4540709886
Cs -1.3437574227 1.1472592551 0.0791295318
5

O -2.2320155814 1.4952035165 -2.6556437856
H -2.6085660251 1.9605518685 -3.4037276623
H -1.718677828 2.1480158642 -2.1495344308
I 2.2699393641 -0.407837461 0.4179001373
Cs -1.2469020935 -0.5348440614 -0.6048910926
5

O 2.2015783048 4.5104632989 -0.6476832188
H 2.5625367513 4.5343787065 0.2421649129
H 1.2405623973 4.473750955 -0.5260479816
I 1.0943349483 -1.5951454457 1.6952248284
Cs -1.2403963665 -0.1537040296 -0.63940848
5

O 1.0110701753 -3.4304075518 0.3022254048
H 1.2131740344 -3.0703174266 -0.5732096126
H 1.6381180653 -2.9850583511 0.8913402039
I 1.6891359861 1.0885446101 -0.3772821913
Cs -1.8042152454 0.2949860627 0.1480318459
5

O 1.0110701753 -3.4304075518 0.3022254048
H 1.2131740344 -3.0703174266 -0.5732096126
H 1.6381180653 -2.9850583511 0.8913402039
I 1.6891359861 1.0885446101 -0.3772821913
Cs -1.8042152454 0.2949860627 0.1480318459
5

O -2.6157801242 -0.0320124309 -3.0624488537
H -2.7552433398 -0.0924690834 -4.0090051531
H -1.6943184554 0.2857879058 -2.9288457938
I 2.6154509308 0.8108006045 -0.2969279638
Cs -0.1361962863 -1.4322813678 0.3024796995
5

O -0.6301826251 2.7144989248 -0.7734631647
H -0.8717487877 3.0522205566 0.0988069864
H 0.3335324599 2.8153983882 -0.7924455118
I 2.2699393641 -0.407837461 0.4179001373
Cs -1.2469020935 -0.5348440614 -0.6048910926
5

O -1.7442458558 -1.4287380934 -0.1358467047
H -1.2630790609 -1.9663572044 0.5204894116
H -1.2240496178 -1.5974152265 -0.9454530196
I 1.5504530829 0.9607169784 -1.2005286898
Cs -1.1592228706 1.2341788466 1.141492408
5

O -2.6721174442 2.3601504866 0.1957099767
H -3.2928889045 2.0827896237 0.873524408
H -2.3976393254 1.5303890287 -0.2451770339
I -1.3035026678 -0.5981872893 -1.05797196
Cs 1.7673543569 -0.2420820498 0.7880438643
5

O 1.8519907188 -0.4936880761 2.1065046747
H 2.5019761513 -0.3552457951 2.7994631996
H 2.1351037901 0.0685029892 1.3579355631
I 1.9939095668 1.0345741171 -1.0110694232
Cs -1.0797657815 -0.3540015843 0.7465665842
5

O -2.028662437 0.3270286487 2.9582014624
H -2.6607844526 -0.0499923354 3.5749103425
H -2.054053403 -0.2456119933 2.1700610348
I -1.8468424467 -1.1410773892 -0.2827837667
Cs 1.7469319336 -0.5136672237 0.5385873053
5

O -1.2626955822 -1.0054526936 2.1309124781
H -1.6787877541 -1.8304689023 1.839479744
H -0.3475251346 -1.2492423122 2.3365937451
I 2.2323106134 0.4814177674 -0.4540709886
Cs -1.3437574227 1.1472592551 0.0791295318
5

O 1.9849425081 0.8122015123 -2.8274653714
H 2.4902774218 1.4730539792 -2.3359989419
H 2.0244261095 0.0308083265 -2.2520546758
I 2.0021270903 -1.0251470088 0.239607877
Cs -1.4510164944 0.2416531431 -0.1871451493
5

O -0.4224771282 2.621839557 2.2126177536
H -0.3679419859 2.9566180483 1.3037862874
H 0.4462430228 2.2230741303 2.3805927352
I 1.3125218507 -1.2518262387 0.4450854347
Cs -1.8508738083 0.1786238263 -0.6810510043
5

O -0.9119294077 -0.6567853412 -2.3006289284
H -0.3456253352 -1.4186813299 -2.4830460196
H -0.2847100845 0.0825483378 -2.32054732
I 1.9939095668 1.0345741171 -1.0110694232
Cs -1.0797657815 -0.3540015843 0.7465665842
5

O 0.4119388667 2.7499634582 2.3950484718
H 0.3025019446 3.5039899213 1.798413844
H -0.4279284483 2.268457249 2.3362695491
I -1.759295284 -1.5694454822 0.2072193267
Cs 1.851917259 -1.1462525275 -0.2338895252
5

O 1.9228040059 -1.7381584875 2.6395743126
H 2.1321810241 -2.2136848607 3.4463732856
H 1.0078261863 -1.9902098887 2.3977789974
I -2.3732139401 0.2363808422 0.5299518166
Cs 0.8963313627 1.7633374366 -0.3217880756
5

O -0.7696302707 -1.9141440087 1.8884271654
H -0.0109554079 -1.6744356482 2.4346252874
H -0.3679240511 -2.537217676 1.254127967
I 1.6891359861 1.0885446101 -0.3772821913
Cs -1.8042152454 0.2949860627 0.1480318459
5

O -2.2320155814 1.4952035165 -2.6556437856
H -2.6085660251 1.9605518685 -3.4037276623
H -1.718677828 2.1480158642 -2.1495344308
I 2.2699393641 -0.407837461 0.4179001373
Cs -1.2469020935 -0.5348440614 -0.6048910926
5

O 1.5721325061 1.306845762 2.8418017667
H 1.8656511315 0.9423682202 3.6797539013
H 1.6838004838 0.5910589592 2.1890039516
I 2.0021270903 -1.0251470088 0.239607877
Cs -1.4510164944 0.2416531431 -0.1871451493
5

O 3.4400646811 2.868956183 0.0279370605
H 3.4203131057 3.8187214019 0.161338134
H 3.0883657433 2.4746778911 0.8490589528
I 1.3125218507 -1.2518262387 0.4450854347
Cs -1.8508738083 0.1786238263 -0.6810510043
5

O 0.0466032195 -2.4134166324 -2.0916701991
H 0.2571052593 -1.7005886561 -2.7050178368
H 0.8159087589 -2.4361615655 -1.4968108101
I 1.5504530829 0.9607169784 -1.2005286898
Cs -1.1592228706 1.2341788466 1.141492408
5

O -1.2821319134 1.5398034369 1.2448240199
H -0.3605363897 1.8241020045 1.109974545
H -1.7032711476 1.6001387892 0.365594391
I 2.0755152063 1.8110003686 0.0916785709
Cs 0.7001993839 -1.5103847982 0.5054055399
5

O -0.9119294077 -0.6567853412 -2.3006289284
H -0.3456253352 -1.4186813299 -2.4830460196
H -0.2847100845 0.0825483378 -2.32054732
I 1.9939095668 1.0345741171 -1.0110694232
Cs -1.0797657815 -0.3540015843 0.7465665842
5

O -1.2448111463 0.7332434325 -2.2959465765
H -1.4715878713 1.0740458628 -3.1632345361
H -0.5168361037 1.2928080449 -1.9728216561
I 1.3568675242 1.8345148739 -0.1714609886
Cs -1.0461136675 -0.9814967361 0.2032442436
5

O 0.8306070485 0.6278895394 3.2172445633
H 0.9681601822 1.5044527247 2.8357844517
H -0.1300240702 0.5416151306 3.3150088108
I -1.8468424467 -1.1410773892 -0.2827837667
Cs 1.7469319336 -0.5136672237 0.5385873053
5

O -1.2821319134 1.5398034369 1.2448240199
H -0.3605363897 1.8241020045 1.109974545
H -1.7032711476 1.6001387892 0.365594391
I 2.0755152063 1.8110003686 0.0916785709
Cs 0.7001993839 -1.5103847982 0.5054055399
5

O 1.6272213593 -0.6990885111 2.3707581008
H 1.8547916172 -1.4093690839 1.7517979627
H 1.7589939998 0.1200414324 1.8656764296
I 1.3568675242 1.8345148739 -0.1714609886
Cs -1.0461136675 -0.9814967361 0.2032442436
5

O 1.6960145531 -2.5646056352 0.1736972904
H 2.0386815325 -3.4604725458 0.187711861
H 2.2535279016 -2.0652337197 -0.4672294175
I 1.3568675242 1.8345148739 -0.1714609886
Cs -1.0461136675 -0.9814967361 0.2032442436
5

O 0.0393350771 4.5533554354 0.1080529234
H -0.2073029914 5.4801798775 0.1290636018
H -0.7702512633 4.0500510021 -0.1771269566
I -1.759295284 -1.5694454822 0.2072193267
Cs 1.851917259 -1.1462525275 -0.2338895252
5

O -1.1495242922 -4.7352336533 -0.4899543084
H -0.8044334098 -4.3184426998 -1.2891359309
H -2.0986425021 -4.5222892165 -0.5013917757
I 1.5504530829 0.9607169784 -1.2005286898
Cs -1.1592228706 1.2341788466 1.141492408
5

O 1.9849425081 0.8122015123 -2.8274653714
H 2.4902774218 1.4730539792 -2.3359989419
H 2.0244261095 0.0308083265 -2.2520546758
I 2.0021270903 -1.0251470088 0.239607877
Cs -1.4510164944 0.2416531431 -0.1871451493
5

O -1.1495242922 -4.7352336533 -0.4899543084
H -0.8044334098 -4.3184426998 -1.2891359309
H -2.0986425021 -4.5222892165 -0.5013917757
I 1.5504530829 0.9607169784 -1.2005286898
Cs -1.1592228706 1.2341788466 1.141492408
5

O 3.5406198756 0.4420183643 3.5566403881
H 3.9865029838 0.8010182209 4.326750342
H 3.8236491509 0.9763737883 2.78582613
I -2.1972972395 -1.539794854 0.0755901495
Cs -0.9115166826 1.8252428503 0.1372764772
5

O 1.6960145531 -2.5646056352 0.1736972904
H 2.0386815325 -3.4604725458 0.187711861
H 2.2535279016 -2.0652337197 -0.4672294175
I 1.3568675242 1.8345148739 -0.1714609886
Cs -1.0461136675 -0.9814967361 0.2032442436
5

O -0.6301826251 2.7144989248 -0.7734631647
H -0.8717487877 3.0522205566 0.0988069864
H 0.3335324599 2.8153983882 -0.7924455118
I 2.2699393641 -0.407837461 0.4179001373
Cs -1.2469020935 -0.5348440614 -0.6048910926
5

O 0.3101313871 -2.1771636795 1.8396620256
H 0.7139682635 -2.4651723809 2.6625308144
H 0.8725751559 -1.438927158 1.5204409021
I 2.0779601588 0.5236472499 0.5393056135
Cs -1.326725041 1.4828857392 -0.2033585067
5

O 1.4923139552 -2.3893185203 1.7343465764
H 1.7128279774 -2.7890093893 0.879952304
H 1.7738937438 -1.4661581076 1.6131528046
I 2.0771855907 0.5023415208 -0.2058028902
Cs -1.476108869 0.2215936925 0.3155445509
5

O 1.0706615679 -2.2954910675 1.2141532752
H 0.1155032383 -2.410693356 1.3477851518
H 1.159104587 -2.4344266507 0.2539181052
I -2.1972972395 -1.539794854 0.0755901495
Cs -0.9115166826 1.8252428503 0.1372764772
5

O 1.1863344369 0.4384078024 1.8388193721
H 1.6080262842 0.4480130888 2.7081039626
H 1.1183739807 -0.5082090409 1.5960396766
I -2.1972972395 -1.539794854 0.0755901495
Cs -0.9115166826 1.8252428503 0.1372764772
5

O 0.5677371539 -3.8870489077 0.5424717662
H 0.7998772047 -3.5499180814 -0.3377931309
H 1.0175308832 -3.2876571613 1.1610944527
I 2.2323106134 0.4814177674 -0.4540709886
Cs -1.3437574227 1.1472592551 0.0791295318
5

O 1.534706073 -1.7406517053 2.1496608596
H 2.2232427022 -1.7160902486 2.8186975338
H 1.8217633364 -1.1118189995 1.4549660183
I 2.2323106134 0.4814177674 -0.4540709886
Cs -1.3437574227 1.1472592551 0.0791295318
5

O -1.7401816896 0.8759041518 -2.2429614978
H -2.3408215562 0.6660658355 -2.9625510085
H -1.8221282076 0.1343343777 -1.6044882684
I -1.759295284 -1.5694454822 0.2072193267
Cs 1.851917259 -1.1462525275 -0.2338895252
5

O 2.4362520887 1.4524322456 0.9900122061
H 2.5447631043 2.1167182548 0.2954842303
H 1.7779616265 1.8508412368 1.5936772106
I -1.759295284 -1.5694454822 0.2072193267
Cs 1.851917259 -1.1462525275 -0.2338895252
5

O 0.0022237223 -2.7624579272 -2.4970363981
H 0.1656715631 -3.1679514072 -3.3509356079
H 0.8824080732 -2.6511345388 -2.0643872972
I 2.0779601588 0.5236472499 0.5393056135
Cs -1.326725041 1.4828857392 -0.2033585067
5

O 0.9556741516 -0.5054511415 -2.2688560537
H 1.5607972178 -1.2605740133 -2.2439699213
H 0.0812362284 -0.8997615975 -2.4045126893
I -2.3732139401 0.2363808422 0.5299518166
Cs 0.8963313627 1.7633374366 -0.3217880756
5

O 1.5721325061 1.306845762 2.8418017667
H 1.8656511315 0.9423682202 3.6797539013
H 1.6838004838 0.5910589592 2.1890039516
I 2.0021270903 -1.0251470088 0.239607877
Cs -1.4510164944 0.2416531431 -0.1871451493
8

O -0.8673307806 2.2435425117 3.1031132065
H -1.5500022417 2.9166922961 3.0667349
H -0.2360358474 2.4689804927 2.3972807004
O 0.8603855783 2.9191023086 0.9743510813
H 1.6166267438 3.4852750308 1.1488653504
H 1.2263426402 2.1193615358 0.5424906649
I 2.0642056045 0.0541886732 -0.632727927
Cs -0.2009180743 -2.2133714619 1.1243544314
8

O -4.4016911047 2.1234626209 0.863360166
H -3.8499282981 2.4816925714 1.5647942751
H -3.8963612448 2.2979973553 0.0539310804
O -4.1611429897 -0.6959188232 0.7659524767
H -3.4195235423 -0.8807208933 1.3626858063
H -4.3572321048 0.2528217231 0.8868728608
I 2.0755152063 1.8110003686 0.0916785709
Cs 0.7001993839 -1.5103847982 0.5054055399
8

O -2.2592913378 1.6891237939 -0.8415194866
H -2.6243162367 1.3450130721 -1.6721050604
H -1.4492949248 2.1646892435 -1.1057669365
O 0.2215085063 2.6744842319 -1.6000492489
H 0.4985969718 3.5688217474 -1.8125084335
H 0.8297669755 2.3585574052 -0.8922234205
I 1.9953014469 1.1594266621 0.8614368896
Cs -0.5602714307 -1.2243231581 -0.1276680241
8

O 2.7112890809 3.4153283656 -0.1581838446
H 3.0023540583 4.3282718105 -0.122796739
H 2.1488703446 3.2722986177 0.6256902383
O -1.4915089974 2.5579046332 1.0372600384
H -1.5980449911 2.6525870834 0.0773761728
H -1.8150962076 1.6503959332 1.1853020747
I -1.8850462114 -0.8407980515 0.2645937294
Cs 1.674578894 -0.2168211828 0.223019478
8

O -0.0568579202 1.8487825377 -2.659884927
H -0.269040028 2.0851110963 -3.5652154615
H 0.933030277 1.9224404434 -2.5776268386
O 1.1131373573 1.8965696 1.1813412952
H 1.9499047334 1.666012377 0.7498982497
H 0.9437582857 1.1141431975 1.7331584135
I 1.0943349483 -1.5951454457 1.6952248284
Cs -1.2403963665 -0.1537040296 -0.63940848
8

O 0.1023763503 3.2302724329 1.2749898938
H -0.6792233876 2.8226052161 0.8668478178
H 0.3345997231 2.6417405697 2.0190397232
O -1.5551808845 -0.3855476878 2.5079226042
H -2.2709196865 -0.6552384893 3.0884528368
H -1.9785662718 0.1013696346 1.7726765992
I -2.1643291598 1.1580386976 -0.556817002
Cs 0.728666102 -0.8952933767 0.2951427383
8

O -1.737673283 2.2569780166 0.717050809
H -2.1132469453 2.197570536 1.6032981861
H -1.8479051451 1.3533683499 0.3657369072
O -2.028662437 0.3270286487 2.9582014624
H -2.6607844526 -0.0499923354 3.5749103425
H -2.054053403 -0.2456119933 2.1700610348
I -1.8468424467 -1.1410773892 -0.2827837667
Cs 1.7469319336 -0.5136672237 0.5385873053
8

O 0.6647017241 -2.2342772605 2.4690730088
H 0.8337151776 -3.1006619426 2.8422733311
H -0.3003574339 -2.1921874838 2.3090561056
O 0.2926837073 2.8075342259 0.0580573877
H 0.2588138625 3.7272434375 -0.2116493
H -0.5305320802 2.4071832708 -0.2767521494
I -2.204963614 0.4834938488 -0.8328847326
Cs 1.3336242298 0.045486428 0.6078987106
8

O -1.4915089974 2.5579046332 1.0372600384
H -1.5980449911 2.6525870834 0.0773761728
H -1.8150962076 1.6503959332 1.1853020747
O 1.2508270553 1.7600839921 -1.9015448756
H 1.6505258448 2.565884999 -1.5431474735
H 0.3133765252 1.9473006437 -2.0632972838
I -1.8850462114 -0.8407980515 0.2645937294
Cs 1.674578894 -0.2168211828 0.223019478
8

O -1.1721367748 -2.5068239219 1.8878935753
H -1.4691593772 -3.1188288924 2.5644709387
H -0.183086386 -2.5016321951 1.9361190113
O 1.4923139552 -2.3893185203 1.7343465764
H 1.7128279774 -2.7890093893 0.879952304
H 1.7738937438 -1.4661581076 1.6131528046
I 2.0771855907 0.5023415208 -0.2058028902
Cs -1.476108869 0.2215936925 0.3155445509
8

O -1.6038915089 -1.2871004141 2.2060737775
H -2.0602899179 -1.4801420214 3.0263714727
H -0.6539055388 -1.2664437283 2.4198783097
O -0.2992726333 -1.3679586277 -3.125341437
H -0.1364148681 -2.1986617038 -2.6654127544
H 0.5472059243 -0.9035213921 -3.0420809929
I 1.3867620714 1.9552172047 0.5732487233
Cs -1.4963107906 -0.0471120028 -0.5659755167
8

O 0.2694717707 1.5321692332 2.5561172638
H -0.6158980791 1.9232547707 2.4603244971
H 0.6913862693 1.6586979254 1.6861032096
O -0.0030540468 -1.0514618266 2.9309339714
H 0.2086051905 -1.2620825821 3.8432131437
H 0.146520682 -0.0668419197 2.8390886521
I 1.409198021 1.4986010295 -0.7808778123
Cs 1.0517391497 -1.9163194774 0.1994419741
8

O -0.6625002777 -1.0219477435 -2.0485770741
H -0.4263012231 -0.149999952 -2.4009886118
H -1.6312031809 -1.0630998336 -2.0863616904
O -1.2821319134 1.5398034369 1.2448240199
H -0.3605363897 1.8241020045 1.109974545
H -1.7032711476 1.6001387892 0.365594391
I 2.0755152063 1.8110003686 0.0916785709
Cs 0.7001993839 -1.5103847982 0.5054055399
8

O 3.5406198756 0.4420183643 3.5566403881
H 3.9865029838 0.8010182209 4.326750342
H 3.8236491509 0.9763737883 2.78582613
O 3.7600155567 -2.0583370736 2.1382349724
H 3.7290336252 -1.3425434141 2.7924234868
H 2.8381795014 -2.3272140115 1.9987991475
I -2.1972972395 -1.539794854 0.0755901495
Cs -0.9115166826 1.8252428503 0.1372764772
8

O -3.4736861416 -0.8188146125 -1.801694213
H -4.1953034745 -1.1232175334 -2.355287341
H -3.7801957469 -0.8806438722 -0.860778548
O -0.0872656363 1.7750035721 -2.5454194243
H 0.3246272254 2.2390432372 -3.2783616774
H 0.5427161734 1.8600174684 -1.7935348373
I 2.0755152063 1.8110003686 0.0916785709
Cs 0.7001993839 -1.5103847982 0.5054055399
8

O -1.1721367748 -2.5068239219 1.8878935753
H -1.4691593772 -3.1188288924 2.5644709387
H -0.183086386 -2.5016321951 1.9361190113
O 1.4923139552 -2.3893185203 1.7343465764
H 1.7128279774 -2.7890093893 0.879952304
H 1.7738937438 -1.4661581076 1.6131528046
I 2.0771855907 0.5023415208 -0.2058028902
Cs -1.476108869 0.2215936925 0.3155445509
8

O -1.798832097 2.4465401527 0.1694905639
H -2.4892939793 3.0402588737 0.4719162308
H -0.956454825 2.7895307054 0.5599405726
O -0.8670520509 -1.3838482273 2.371840099
H -0.9379122413 -1.661530423 3.2872293906
H 0.0427120644 -1.0544623488 2.2670885479
I 2.0610591192 0.0257151774 1.0426617091
Cs -1.3701136915 -0.5967977227 -0.474423373
8

O 0.9755419423 3.4219351653 1.2227072498
H 1.5436798032 4.1961502394 1.2123158925
H 1.5216291565 2.6997591243 0.8364607919
O -0.2890227405 1.0534090697 -2.3084508811
H 0.6649766672 0.9795351019 -2.1471279794
H -0.5974005752 1.6829552531 -1.6285451661
I 2.6154509308 0.8108006045 -0.2969279638
Cs -0.1361962863 -1.4322813678 0.3024796995
8

O -3.9004830059 1.8450949588 -1.2886280294
H -3.1468221568 2.3974593924 -1.0335537744
H -3.5717258456 1.286852015 -2.0113908973
O -1.8084258874 0.6383117546 1.6988182019
H -2.7764679877 0.5631916475 1.6990889341
H -1.515571019 1.1734596818 2.4583801803
I 2.6154509308 0.8108006045 -0.2969279638
Cs -0.1361962863 -1.4322813678 0.3024796995
8

O -1.7559156759 2.2687698545 -1.1942893488
H -2.494838824 2.4068255434 -1.7917043897
H -1.8930291154 1.3770566755 -0.8057607998
O 1.1085435094 2.4268812969 -1.3036196329
H 1.0895490133 3.1002275381 -0.613023998
H 0.1757724066 2.3674713318 -1.5628221864
I -1.8389878776 -0.8754936267 0.2920520271
Cs 1.6797604584 -0.3027190313 -0.2068115242
8

O 2.1306725117 -0.1993012507 -2.0406075998
H 3.0043325323 -0.039562952 -2.4053183609
H 1.9972671442 0.4972216882 -1.362703124
O -0.2992726333 -1.3679586277 -3.125341437
H -0.1364148681 -2.1986617038 -2.6654127544
H 0.5472059243 -0.9035213921 -3.0420809929
I 1.3867620714 1.9552172047 0.5732487233
Cs -1.4963107906 -0.0471120028 -0.5659755167
8

O 0.9755419423 3.4219351653 1.2227072498
H 1.5436798032 4.1961502394 1.2123158925
H 1.5216291565 2.6997591243 0.8364607919
O -0.2890227405 1.0534090697 -2.3084508811
H 0.6649766672 0.9795351019 -2.1471279794
H -0.5974005752 1.6829552531 -1.6285451661
I 2.6154509308 0.8108006045 -0.2969279638
Cs -0.1361962863 -1.4322813678 0.3024796995
8

O 1.6272213593 -0.6990885111 2.3707581008
H 1.8547916172 -1.4093690839 1.7517979627
H 1.7589939998 0.1200414324 1.8656764296
O -0.9504122949 -1.1177560741 3.2063471556
H -1.1459494852 -1.127080441 4.144201776
H 0.0068355652 -0.9326022109 3.1217648021
I 1.3568675242 1.8345148739 -0.1714609886
Cs -1.0461136675 -0.9814967361 0.2032442436
8

O -0.8673307806 2.2435425117 3.1031132065
H -1.5500022417 2.9166922961 3.0667349
H -0.2360358474 2.4689804927 2.3972807004
O 0.8603855783 2.9191023086 0.9743510813
H 1.6166267438 3.4852750308 1.1488653504
H 1.2263426402 2.1193615358 0.5424906649
I 2.0642056045 0.0541886732 -0.632727927
Cs -0.2009180743 -2.2133714619 1.1243544314
8

O -1.2135913941 1.9848140962 2.0648326519
H -1.6060193519 2.2097379093 1.2131141056
H -0.25236556 1.9532791177 1.8933607203
O 0.2215085063 2.6744842319 -1.6000492489
H 0.4985969718 3.5688217474 -1.8125084335
H 0.8297669755 2.3585574052 -0.8922234205
I 1.9953014469 1.1594266621 0.8614368896
Cs -0.5602714307 -1.2243231581 -0.1276680241
8

O -1.1721367748 -2.5068239219 1.8878935753
H -1.4691593772 -3.1188288924 2.5644709387
H -0.183086386 -2.5016321951 1.9361190113
O 1.4923139552 -2.3893185203 1.7343465764
H 1.7128279774 -2.7890093893 0.879952304
H 1.7738937438 -1.4661581076 1.6131528046
I 2.0771855907 0.5023415208 -0.2058028902
Cs -1.476108869 0.2215936925 0.3155445509
8

O 0.7570680059 -0.8298550055 -2.1705841286
H 0.7545026108 -1.2901964421 -3.0118186348
H -0.1584760604 -0.5180489943 -2.0429741697
O 0.2926837073 2.8075342259 0.0580573877
H 0.2588138625 3.7272434375 -0.2116493
H -0.5305320802 2.4071832708 -0.2767521494
I -2.204963614 0.4834938488 -0.8328847326
Cs 1.3336242298 0.045486428 0.6078987106
8

O 0.4840857798 -3.329939607 -1.7140100528
H 0.6745599271 -4.1769163585 -2.1227442593
H 1.3441341165 -2.8320274475 -1.67233467
O -0.1461931295 -2.7156359214 1.0151769009
H 0.0130659507 -3.1313286777 0.1527739149
H 0.7271625383 -2.4122721065 1.3195696778
I 1.653278021 1.2306053553 -0.2478223944
Cs -1.7049826669 -0.0619916828 0.230198817
8

O -1.798832097 2.4465401527 0.1694905639
H -2.4892939793 3.0402588737 0.4719162308
H -0.956454825 2.7895307054 0.5599405726
O -0.8670520509 -1.3838482273 2.371840099
H -0.9379122413 -1.661530423 3.2872293906
H 0.0427120644 -1.0544623488 2.2670885479
I 2.0610591192 0.0257151774 1.0426617091
Cs -1.3701136915 -0.5967977227 -0.474423373
8

O 1.6272213593 -0.6990885111 2.3707581008
H 1.8547916172 -1.4093690839 1.7517979627
H 1.7589939998 0.1200414324 1.8656764296
O -1.2448111463 0.7332434325 -2.2959465765
H -1.4715878713 1.0740458628 -3.1632345361
H -0.5168361037 1.2928080449 -1.9728216561
I 1.3568675242 1.8345148739 -0.1714609886
Cs -1.0461136675 -0.9814967361 0.2032442436
8

O 2.991254372 -0.9164085697 -1.5252524976
H 3.9312356386 -0.7268896861 -1.4712725105
H 2.5541995139 -0.0769979085 -1.273342966
O -0.9504122949 -1.1177560741 3.2063471556
H -1.1459494852 -1.127080441 4.144201776
H 0.0068355652 -0.9326022109 3.1217648021
I 1.3568675242 1.8345148739 -0.1714609886
Cs -1.0461136675 -0.9814967361 0.2032442436
8

O -3.9972926528 -0.0781105634 0.6334159157
H -3.5766165969 0.7265948858 0.2968028901
H -3.5168035276 -0.2838784119 1.4556312772
O 0.2215085063 2.6744842319 -1.6000492489
H 0.4985969718 3.5688217474 -1.8125084335
H 0.8297669755 2.3585574052 -0.8922234205
I 1.9953014469 1.1594266621 0.8614368896
Cs -0.5602714307 -1.2243231581 -0.1276680241
8

O -1.7097928722 -1.7166012661 -2.276836549
H -1.987926155 -1.7110680224 -3.1935110478
H -0.9323287568 -2.3041280991 -2.2317256571
O 2.4079949481 -1.6055360788 1.4714480662
H 2.967692996 -1.504983213 2.244942947
H 2.2430523378 -0.6968487377 1.1290023727
I 1.653278021 1.2306053553 -0.2478223944
Cs -1.7049826669 -0.0619916828 0.230198817
8

O 2.9896957635 -0.1222656468 2.3451248249
H 3.7564833584 -0.2390894998 2.9094635788
H 3.2841214307 0.4138626309 1.5761943559
O 3.3856097848 1.1760262797 0.012645387
H 3.3350262464 0.6944361233 -0.8283941868
H 3.0242793152 2.0628379765 -0.1713858706
I -2.1643291598 1.1580386976 -0.556817002
Cs 0.728666102 -0.8952933767 0.2951427383
8

O -1.798832097 2.4465401527 0.1694905639
H -2.4892939793 3.0402588737 0.4719162308
H -0.956454825 2.7895307054 0.5599405726
O -0.8670520509 -1.3838482273 2.371840099
H -0.9379122413 -1.661530423 3.2872293906
H 0.0427120644 -1.0544623488 2.2670885479
I 2.0610591192 0.0257151774 1.0426617091
Cs -1.3701136915 -0.5967977227 -0.474423373
8

O -0.3555814364 2.2196980263 3.3922454672
H -0.3956475944 2.7522123747 4.1880353302
H 0.1767328159 2.7231950391 2.7492228353
O -0.2890227405 1.0534090697 -2.3084508811
H 0.6649766672 0.9795351019 -2.1471279794
H -0.5974005752 1.6829552531 -1.6285451661
I 2.6154509308 0.8108006045 -0.2969279638
Cs -0.1361962863 -1.4322813678 0.3024796995
8

O 0.8942906749 -2.4954219457 -2.6911403072
H 1.6613271213 -2.5023278284 -2.1038815977
H 0.1765850076 -2.806698857 -2.1186824114
O 2.0047541788 -2.1828723376 -0.0744409088
H 2.277052366 -1.8174716415 0.7797831804
H 1.2025127714 -2.6962246476 0.1057262413
I -1.4323207965 -0.7271705853 1.9751875689
Cs 0.741869941 0.6903448606 -0.6223789129
8

O 0.8942906749 -2.4954219457 -2.6911403072
H 1.6613271213 -2.5023278284 -2.1038815977
H 0.1765850076 -2.806698857 -2.1186824114
O 2.0047541788 -2.1828723376 -0.0744409088
H 2.277052366 -1.8174716415 0.7797831804
H 1.2025127714 -2.6962246476 0.1057262413
I -1.4323207965 -0.7271705853 1.9751875689
Cs 0.741869941 0.6903448606 -0.6223789129
8

O -1.9515249458 -1.8374429206 1.7799016002
H -2.6108467978 -1.4800033256 2.3795720697
H -2.0543615772 -1.3084481804 0.9651094648
O 0.7570680059 -0.8298550055 -2.1705841286
H 0.7545026108 -1.2901964421 -3.0118186348
H -0.1584760604 -0.5180489943 -2.0429741697
I -2.204963614 0.4834938488 -0.8328847326
Cs 1.3336242298 0.045486428 0.6078987106
8

O 0.5361103649 1.3645377952 -2.4908527032
H 0.8987153711 1.4755768781 -3.3725114768
H 1.2623303595 1.0072898095 -1.9450010786
O 0.884844659 2.7666113157 1.8153072268
H 1.4679896152 3.4034326136 2.2353016914
H 1.4695000858 2.1137308604 1.3814306891
I 2.2796982235 0.0020347162 0.2155127404
Cs -1.4402821566 0.0489806744 -0.3461546886
8

O 1.6272213593 -0.6990885111 2.3707581008
H 1.8547916172 -1.4093690839 1.7517979627
H 1.7589939998 0.1200414324 1.8656764296
O -0.9504122949 -1.1177560741 3.2063471556
H -1.1459494852 -1.127080441 4.144201776
H 0.0068355652 -0.9326022109 3.1217648021
I 1.3568675242 1.8345148739 -0.1714609886
Cs -1.0461136675 -0.9814967361 0.2032442436
8

O -2.028662437 0.3270286487 2.9582014624
H -2.6607844526 -0.0499923354 3.5749103425
H -2.054053403 -0.2456119933 2.1700610348
O 1.8007827314 0.9140763014 -2.1614402478
H 0.9485021751 0.8400227876 -2.6147938556
H 1.9251379534 1.8682962454 -2.0476183534
I -1.8468424467 -1.1410773892 -0.2827837667
Cs 1.7469319336 -0.5136672237 0.5385873053
8

O 1.6035820304 -2.7736290661 -1.2014426727
H 2.1921787008 -3.1723046427 -1.8469692344
H 1.841833893 -1.8233219318 -1.164969577
O 1.4923139552 -2.3893185203 1.7343465764
H 1.7128279774 -2.7890093893 0.879952304
H 1.7738937438 -1.4661581076 1.6131528046
I 2.0771855907 0.5023415208 -0.2058028902
Cs -1.476108869 0.2215936925 0.3155445509
8

O 0.6647017241 -2.2342772605 2.4690730088
H 0.8337151776 -3.1006619426 2.8422733311
H -0.3003574339 -2.1921874838 2.3090561056
O 0.2926837073 2.8075342259 0.0580573877
H 0.2588138625 3.7272434375 -0.2116493
H -0.5305320802 2.4071832708 -0.2767521494
I -2.204963614 0.4834938488 -0.8328847326
Cs 1.3336242298 0.045486428 0.6078987106
8

O 2.0063276177 -0.411626407 2.1227127477
H 2.3951738843 -0.2746299294 2.9899332276
H 1.0522174019 -0.5685728579 2.2859263242
O 2.0047541788 -2.1828723376 -0.0744409088
H 2.277052366 -1.8174716415 0.7797831804
H 1.2025127714 -2.6962246476 0.1057262413
I -1.4323207965 -0.7271705853 1.9751875689
Cs 0.741869941 0.6903448606 -0.6223789129
8

O 0.6647017241 -2.2342772605 2.4690730088
H 0.8337151776 -3.1006619426 2.8422733311
H -0.3003574339 -2.1921874838 2.3090561056
O 0.7570680059 -0.8298550055 -2.1705841286
H 0.7545026108 -1.2901964421 -3.0118186348
H -0.1584760604 -0.5180489943 -2.0429741697
I -2.204963614 0.4834938488 -0.8328847326
Cs 1.3336242298 0.045486428 0.6078987106
8

O 0.7677989398 1.7429940195 -2.5699286438
H -0.1647444133 1.6241861785 -2.3298907047
H 1.0931025819 2.4522147268 -1.9870102396
O 0.1023763503 3.2302724329 1.2749898938
H -0.6792233876 2.8226052161 0.8668478178
H 0.3345997231 2.6417405697 2.0190397232
I -2.1643291598 1.1580386976 -0.556817002
Cs 0.728666102 -0.8952933767 0.2951427383
8

O -0.6569217984 2.1375109726 -2.4308926654
H -1.1479810872 2.4373501433 -1.6496436127
H 0.2816313342 2.2784678326 -2.2199110214
O -1.798832097 2.4465401527 0.1694905639
H -2.4892939793 3.0402588737 0.4719162308
H -0.956454825 2.7895307054 0.5599405726
I 2.0610591192 0.0257151774 1.0426617091
Cs -1.3701136915 -0.5967977227 -0.474423373
8

O 0.4840857798 -3.329939607 -1.7140100528
H 0.6745599271 -4.1769163585 -2.1227442593
H 1.3441341165 -2.8320274475 -1.67233467
O -0.1461931295 -2.7156359214 1.0151769009
H 0.0130659507 -3.1313286777 0.1527739149
H 0.7271625383 -2.4122721065 1.3195696778
I 1.653278021 1.2306053553 -0.2478223944
Cs -1.7049826669 -0.0619916828 0.230198817
8

O -1.7559156759 2.2687698545 -1.1942893488
H -2.494838824 2.4068255434 -1.7917043897
H -1.8930291154 1.3770566755 -0.8057607998
O 1.1085435094 2.4268812969 -1.3036196329
H 1.0895490133 3.1002275381 -0.613023998
H 0.1757724066 2.3674713318 -1.5628221864
I -1.8389878776 -0.8754936267 0.2920520271
Cs 1.6797604584 -0.3027190313 -0.2068115242
