2

K 0.29999999999999993 0.0 0.0
Br 2.5474846406000005 0.0 0.0
2

K 0.24999999999999986 0.0 0.0
Br 2.5974846406000003 0.0 0.0
2

K 0.14999999999999997 0.0 0.0
Br 2.6974846406000004 0.0 0.0
2

K 0.04999999999999978 0.0 0.0
Br 2.7974846406000005 0.0 0.0
2

K 0.0 0.0 0.0
Br 2.8474846406000003 0.0 0.0
2

K -0.04999999999999978 0.0 0.0
Br 2.8974846406 0.0 0.0
2

K -0.1000000000000002 0.0 0.0
Br 2.9474846406000004 0.0 0.0
2

K -0.14999999999999997 0.0 0.0
Br 2.9974846406 0.0 0.0
2

K -0.2000000000000004 0.0 0.0
Br 3.0474846406000005 0.0 0.0
2

K -0.29999999999999993 0.0 0.0
Br 3.1474846406 0.0 0.0
2

K -0.40000000000000013 0.0 0.0
Br 3.2474846406000006 0.0 0.0
2

K -0.4999999999999997 0.0 0.0
Br 3.3474846406 0.0 0.0
2

K -0.5500000000000002 0.0 0.0
Br 3.3974846406000005 0.0 0.0
2

K -0.5999999999999999 0.0 0.0
Br 3.4474846406000004 0.0 0.0
2

K -0.7000000000000001 0.0 0.0
Br 3.5474846406000005 0.0 0.0
2

K -0.9000000000000005 0.0 0.0
Br 3.7474846406000006 0.0 0.0
2

K -1.0 0.0 0.0
Br 3.8474846406000003 0.0 0.0
2

K -1.0499999999999998 0.0 0.0
Br 3.8974846406 0.0 0.0
2

K -1.1500000000000006 0.0 0.0
Br 3.997484640600001 0.0 0.0
2

K -1.2000000000000004 0.0 0.0
Br 4.0474846406000005 0.0 0.0
2

K -1.45 0.0 0.0
Br 4.2974846406000005 0.0 0.0
2

K -1.7000000000000002 0.0 0.0
Br 4.5474846406000005 0.0 0.0
2

K -1.8500000000000008 0.0 0.0
Br 4.697484640600001 0.0 0.0
2

K -2.1000000000000005 0.0 0.0
Br 4.947484640600001 0.0 0.0
2

K -2.1499999999999995 0.0 0.0
Br 4.9974846406 0.0 0.0
2

K -2.1999999999999997 0.0 0.0
Br 5.0474846406000005 0.0 0.0
2

K -2.2500000000000004 0.0 0.0
Br 5.0974846406 0.0 0.0
2

K -2.5 0.0 0.0
Br 5.3474846406 0.0 0.0
2

K -2.55 0.0 0.0
Br 5.3974846406 0.0 0.0
2

K -2.6000000000000005 0.0 0.0
Br 5.447484640600001 0.0 0.0
2

K -2.6500000000000004 0.0 0.0
Br 5.497484640600001 0.0 0.0
5

O 2.1663222665 -2.735542443 1.8261201638
H 2.6750498899 -3.3001552437 2.4093902478
H 2.5308615433 -1.8390978755 1.905364495
Br -1.8132978222 0.4081580583 0.2551790113
K 0.4475003506 -1.7306457035 0.0016489319
5

O 1.8020260939 2.1997982202 -0.9630950906
H 1.4043455981 2.3476393185 -0.092722306
H 1.0677850588 2.3247294261 -1.5831657113
Br -1.8132978222 0.4081580583 0.2551790113
K 0.4475003506 -1.7306457035 0.0016489319
5

O -1.4965591703 1.7686688902 1.3808177545
H -2.3198893393 2.2491050767 1.4925815395
H -1.5760393708 1.3030728409 0.5137423371
Br -1.6323285205 -0.0367079303 -1.2531534299
K 0.5886341086 -1.583965782 0.2930503062
5

O 0.8755877347 1.9629147975 -1.9947279727
H 1.0218794392 1.9992354506 -2.9421556727
H 0.0441970752 1.4618394542 -1.8780952875
Br -1.6323285205 -0.0367079303 -1.2531534299
K 0.5886341086 -1.583965782 0.2930503062
5

O -0.0921553042 -0.4117930123 2.6509618258
H 0.5781959979 0.2056918859 2.9643799888
H -0.8206953537 0.1733857912 2.3932404635
Br -1.6323285205 -0.0367079303 -1.2531534299
K 0.5886341086 -1.583965782 0.2930503062
5

O 0.1745697906 1.4412282838 2.115675706
H -0.1966134713 1.9460074022 2.8429692484
H -0.5870992775 1.1881498235 1.5470893209
Br -2.0430657758 0.4370077676 8.9734e-5
K -0.1249681471 -2.0081695281 0.0008182148
5

O 1.5705036697 -1.0515956604 -1.8268872624
H 2.3836811796 -0.7792209597 -1.3738968311
H 1.1816717771 -0.2232608485 -2.1494584959
Br -2.0430657758 0.4370077676 8.9734e-5
K -0.1249681471 -2.0081695281 0.0008182148
5

O 1.386656871 -0.3040374334 -1.871467292
H 0.709288327 -0.7880011411 -2.3624926717
H 1.4354543659 -0.7939345862 -1.0307098065
Br 0.369448048 -1.5665242688 1.0074112381
K 0.0912824721 1.5017026164 0.1291443717
5

O -2.3212702974 -0.1857119974 -0.3176362078
H -2.2367890831 -0.6793374037 -1.1436213446
H -1.7809414379 -0.7075860749 0.3031992991
Br 0.369448048 -1.5665242688 1.0074112381
K 0.0912824721 1.5017026164 0.1291443717
5

O 1.9795362092 2.3381242506 -1.5688755775
H 2.6739096415 2.8217981791 -2.0175525246
H 1.9843370072 1.4311352185 -1.9242669603
Br 0.369448048 -1.5665242688 1.0074112381
K 0.0912824721 1.5017026164 0.1291443717
5

O -0.8949128312 -2.096154465 -1.9896263321
H -1.0649011595 -2.972818486 -2.3418546117
H -0.5284234892 -2.2313717131 -1.0927459936
Br 0.369448048 -1.5665242688 1.0074112381
K 0.0912824721 1.5017026164 0.1291443717
5

O -3.3252434167 -0.1561396952 -2.2077570175
H -3.345912511 -1.058155754 -1.857551781
H -3.5661513781 0.4083903847 -1.4569711582
Br 0.9906992857 -1.1024299622 1.5234409231
K 2.5295895904 1.2663721719 0.1179319105
5

O 1.2128082475 -1.7857426327 2.295106161
H 1.937397927 -2.2915279973 2.6711205201
H 1.3162449811 -1.8558357688 1.3191838475
Br 1.2924523504 -1.7587711009 -0.9329968555
K 1.5458770508 1.185226974 -1.7661874542
5

O -0.5985122482 0.2250838779 -2.2323493416
H -0.3176451245 -0.6445895136 -1.9056221838
H -1.5562073945 0.1189393563 -2.4198477043
Br 0.9906992857 -1.1024299622 1.5234409231
K 2.5295895904 1.2663721719 0.1179319105
5

O -1.2249123044 1.2052688949 2.0103366856
H -1.3880843134 1.9225591965 2.6257237764
H -0.6184819503 0.577651339 2.4525626912
Br 0.9839689627 -1.0980471115 2.5138765574
K 0.3474748133 0.6278179875 -0.3127255419
5

O -1.522518471 -2.6996639101 1.2507839151
H -1.9253499592 -3.4012456187 1.767172876
H -0.8381576147 -2.2893509435 1.8257176261
Br 0.9839689627 -1.0980471115 2.5138765574
K 0.3474748133 0.6278179875 -0.3127255419
5

O -1.2920360137 2.6491544899 -1.3426783938
H -0.5538104084 2.9289830453 -1.8985462497
H -1.8944520478 2.1703857266 -1.9276139899
Br 0.9839689627 -1.0980471115 2.5138765574
K 0.3474748133 0.6278179875 -0.3127255419
5

O -0.6053652445 0.6974944774 2.0277169662
H 0.0743511958 1.3819577916 2.1251800042
H -1.0875109543 0.9294237839 1.2158394411
Br 1.9818459108 0.4568087668 -0.8460774664
K 0.3414569366 -1.6706736718 0.9010722665
5

O -0.6962558159 -0.0788773908 -2.5804504033
H -0.6718929391 0.1816924615 -3.5040305992
H 0.2063996788 0.0678415037 -2.2243798628
Br 1.9818459108 0.4568087668 -0.8460774664
K 0.3414569366 -1.6706736718 0.9010722665
5

O -3.674880989 -0.7948894062 0.4575771121
H -4.6250215807 -0.6995018824 0.3665279214
H -3.2834359527 0.0683788475 0.225446175
Br 1.9818459108 0.4568087668 -0.8460774664
K 0.3414569366 -1.6706736718 0.9010722665
5

O -1.5581861967 -2.2245131727 -0.9147241741
H -1.3806924475 -1.6708911645 -1.6888023401
H -2.4187158074 -1.9306019931 -0.5824820319
Br 1.9818459108 0.4568087668 -0.8460774664
K 0.3414569366 -1.6706736718 0.9010722665
5

O 1.7886309025 -1.81162625 -1.7082518794
H 2.4247815434 -2.0866485797 -2.3718478455
H 2.1472865348 -0.9875699172 -1.3044117157
Br 2.497781747 0.7832951008 0.0426616289
K -0.5171502129 1.4260950198 -0.3368880437
5

O -1.1639438421 -2.0539376509 2.2059441615
H -1.1335957968 -2.4896018636 3.0601424446
H -0.2344228586 -2.0614278814 1.8545508671
Br 2.497781747 0.7832951008 0.0426616289
K -0.5171502129 1.4260950198 -0.3368880437
5

O -2.342789355 0.3890321075 1.5467501708
H -3.119644449 0.1153746634 1.0352306888
H -1.9600181256 -0.4260654648 1.9192335713
Br 2.497781747 0.7832951008 0.0426616289
K -0.5171502129 1.4260950198 -0.3368880437
5

O -1.5440530882 2.1069988495 -1.3555909418
H -2.3250820789 1.8448034048 -0.8529207555
H -0.8541977941 2.1585460253 -0.6694402051
Br 0.4251543185 1.1689011553 1.1474705244
K 0.0515306374 -1.5312316823 -0.4965977165
5

O -2.8683161733 -0.0147709208 -2.3764429205
H -3.0646704772 -0.624825367 -3.0900966448
H -2.6539230667 -0.5676933844 -1.6033127664
Br 1.2924523504 -1.7587711009 -0.9329968555
K 1.5458770508 1.185226974 -1.7661874542
5

O -2.5133653239 -1.7558381805 0.2610125281
H -3.3135337881 -2.2828498488 0.2620376298
H -2.761998121 -0.8814517866 0.6178934596
Br 0.4251543185 1.1689011553 1.1474705244
K 0.0515306374 -1.5312316823 -0.4965977165
5

O -0.2065483052 -1.930086813 1.1771369559
H -0.4265123404 -2.7572084674 1.6111545292
H -0.8098388905 -1.8473833635 0.4020242529
Br -1.8650637469 -0.7439758899 -1.2389751193
K -0.577962936 0.8889545209 1.1335755738
5

O 1.3892477497 1.5010189436 -0.6851612642
H 1.1114768747 1.5284763485 -1.6061273507
H 1.7073076935 0.5881800098 -0.5698767381
Br -1.8650637469 -0.7439758899 -1.2389751193
K -0.577962936 0.8889545209 1.1335755738
5

O 1.3165466716 1.3613519118 2.9457374966
H 1.5282450451 1.4399214425 3.8769412272
H 2.1696672366 1.2006465841 2.4871208484
Br -1.8650637469 -0.7439758899 -1.2389751193
K -0.577962936 0.8889545209 1.1335755738
5

O 2.1941438165 -1.1672381602 -0.082291753
H 1.4681740118 -1.5878470579 0.4109846525
H 2.0085612185 -1.360083379 -1.0190384061
Br -1.8650637469 -0.7439758899 -1.2389751193
K -0.577962936 0.8889545209 1.1335755738
5

O -1.1700617706 -1.4130873699 -0.0729361804
H -1.2096395915 -2.1499770137 -0.696346491
H -0.2808161563 -1.5285214277 0.3401154381
Br 1.7584504098 -2.1158850194 0.9938966555
K 1.9186177968 0.9700410617 0.9079697597
5

O 0.4479299578 -0.4335079029 -3.1571165661
H -0.488222219 -0.2097814159 -3.1361490983
H 0.5032640448 -1.33593474 -2.7989665014
Br 1.7584504098 -2.1158850194 0.9938966555
K 1.9186177968 0.9700410617 0.9079697597
5

O -2.0043647596 3.6003690694 0.5696104232
H -2.8121263677 3.0857656863 0.4344175854
H -1.6019141931 3.6676205879 -0.3102782435
Br 1.7584504098 -2.1158850194 0.9938966555
K 1.9186177968 0.9700410617 0.9079697597
5

O 0.8986557643 0.7811277522 -1.887444524
H 1.5927836344 0.1160187679 -1.764263382
H 0.0700037897 0.2851359527 -1.7839570872
Br -1.7133784205 -0.318646571 -0.0672750264
K 0.2770169055 1.9600193198 0.4456118413
5

O 1.6678423243 1.0124661951 -2.1344599739
H 2.3687918687 1.3842837092 -2.6751115475
H 2.0595450658 0.850904196 -1.2484944949
Br 2.1182269606 -0.0438580941 0.8646890265
K 0.2741012135 -1.3459251417 -1.4424310164
5

O -0.1716567352 -2.5948210931 0.8872285454
H 0.4526836297 -2.0178922147 1.3481569598
H -1.0532310556 -2.346719526 1.2087164313
Br 2.1182269606 -0.0438580941 0.8646890265
K 0.2741012135 -1.3459251417 -1.4424310164
5

O -0.2829037556 -0.8200032346 2.6525752239
H -0.5211539466 -0.6376420643 3.5650361866
H 0.526214778 -0.2801161079 2.4715870674
Br 2.1918952594 0.9472617857 1.7827751398
K 1.2277614392 0.2762315565 -1.1522128693
5

O -2.4062250332 2.6854021764 0.0586132181
H -2.5571992535 1.7869036705 0.3879355811
H -1.4417316816 2.7949927044 0.0890907245
Br 2.1918952594 0.9472617857 1.7827751398
K 1.2277614392 0.2762315565 -1.1522128693
5

O 0.5098970595 2.7171055795 1.2778260482
H 0.9661056623 3.4558078153 1.6876965098
H 1.2148295952 2.1026118723 0.9559164643
Br 2.4115218581 0.4401758554 0.1798833193
K -0.1174557904 -1.365658095 0.7311450946
5

O 0.7884480383 0.8491914058 -2.5898968676
H 1.3331418022 1.0603587652 -3.3516133764
H 1.4097409909 0.7250549156 -1.8385136131
Br 2.4115218581 0.4401758554 0.1798833193
K -0.1174557904 -1.365658095 0.7311450946
5

O -3.5345060087 -1.3047132546 -1.1548692532
H -4.4092239158 -1.2916432648 -1.5473236604
H -3.3882918487 -0.4138830606 -0.7407321123
Br 2.4115218581 0.4401758554 0.1798833193
K -0.1174557904 -1.365658095 0.7311450946
5

O -0.7547186406 -1.4461751572 -1.8571680114
H -1.7099865634 -1.3829780519 -1.9880504019
H -0.3448935188 -0.7125558929 -2.3394111689
Br 2.4115218581 0.4401758554 0.1798833193
K -0.1174557904 -1.365658095 0.7311450946
5

O -0.4275411325 -1.783898229 -0.2262475299
H -0.4473272772 -1.1912162525 0.5448450872
H 0.5233517198 -1.9395312064 -0.3787953315
Br 2.7859358426 -1.0885715769 -0.4110842808
K 1.8144255042 1.0059754002 1.5706739962
5

O 1.4220740142 1.2414620393 -2.2818189685
H 0.5530305463 0.8847805621 -2.5167669287
H 1.9203611055 0.4823676122 -1.9176233919
Br 2.7859358426 -1.0885715769 -0.4110842808
K 1.8144255042 1.0059754002 1.5706739962
5

O -1.238064531 0.1375449146 -2.0553540885
H -2.1609465127 -0.0502027199 -2.2893836278
H -0.9468183281 -0.6232401922 -1.5102819772
Br 2.7859358426 -1.0885715769 -0.4110842808
K 1.8144255042 1.0059754002 1.5706739962
5

O -0.6053455465 2.4841733201 -1.3214561633
H -1.0411901927 3.2880850786 -1.6140479252
H -1.2579548123 2.0202454785 -0.7505610645
Br -2.5232194589 0.6331899829 0.5549735571
K -0.3271845484 -1.5581070118 -0.5595804036
5

O 3.0199540226 0.0929551265 -1.9954156916
H 3.9436549541 0.2147514536 -2.225115279
H 2.9586664628 -0.74730866 -1.4939794642
Br -2.5232194589 0.6331899829 0.5549735571
K -0.3271845484 -1.5581070118 -0.5595804036
5

O 2.4901804734 -2.1031424552 -0.4359651169
H 2.9354720697 -2.944747848 -0.5573152019
H 2.7474587009 -1.7819508519 0.4751133349
Br -2.5232194589 0.6331899829 0.5549735571
K -0.3271845484 -1.5581070118 -0.5595804036
5

O 1.1372270399 -0.0409993439 -2.3903866234
H 1.7898345511 -0.2154021516 -3.0724179873
H 1.5203091427 -0.3875635795 -1.5514017416
Br 1.8509191975 -1.1627980201 0.5305551809
K -0.7940945438 0.5429496994 0.8024667023
5

O -1.4639943108 -1.0561900435 -1.8676228227
H -1.3442869766 -1.7266443877 -1.1776305065
H -0.5786999734 -0.8515330709 -2.2126484962
Br 1.8509191975 -1.1627980201 0.5305551809
K -0.7940945438 0.5429496994 0.8024667023
5

O -2.8958685514 1.0359855258 -0.9617006753
H -3.8285445542 1.0736208817 -1.1794674325
H -2.5299052317 0.2481743202 -1.4208263718
Br 1.8509191975 -1.1627980201 0.5305551809
K -0.7940945438 0.5429496994 0.8024667023
5

O 0.1790170987 1.3304508855 2.1597162877
H 0.6415010932 1.6783022884 2.9258219773
H 0.8664281361 0.8865430322 1.6119332341
Br 2.2284894035 -0.0397326277 0.0985620512
K 0.0098837791 0.9260464297 -1.8299521381
5

O 1.053576408 -3.080700045 0.3794236133
H 1.543097752 -3.4698913274 1.107888833
H 1.4738650756 -2.2080542404 0.23402992
Br 2.2284894035 -0.0397326277 0.0985620512
K 0.0098837791 0.9260464297 -1.8299521381
5

O -2.1637084244 -0.2714479952 2.1588317755
H -1.9339446412 -1.1176205488 1.7417855333
H -1.3250227303 0.2057837109 2.2804410673
Br 2.2284894035 -0.0397326277 0.0985620512
K 0.0098837791 0.9260464297 -1.8299521381
5

O -1.1448928295 2.5817130225 -0.0757414577
H -2.0649066997 2.3090182742 0.0635957695
H -0.7029163905 2.386236266 0.7651036382
Br 2.2284894035 -0.0397326277 0.0985620512
K 0.0098837791 0.9260464297 -1.8299521381
5

O -1.5874750048 -2.5748326406 0.5481198482
H -2.070621654 -3.4024049499 0.5962613957
H -0.6301963326 -2.8127799683 0.526717727
Br 2.2284894035 -0.0397326277 0.0985620512
K 0.0098837791 0.9260464297 -1.8299521381
5

O 0.5865333438 1.9587138825 1.6641336445
H 0.3303732654 2.5394526144 2.3838612733
H -0.2447754325 1.5532283275 1.3194649185
Br -1.8132978222 0.4081580583 0.2551790113
K 0.4475003506 -1.7306457035 0.0016489319
5

O 2.4203111479 -0.0521922619 1.2871207921
H 2.9934552515 0.3815370132 0.6484371768
H 1.8248900638 0.654458052 1.6051528022
Br -1.8132978222 0.4081580583 0.2551790113
K 0.4475003506 -1.7306457035 0.0016489319
8

O 3.4959554572 0.0347071884 0.0005987492
H 4.4356104757 0.2262661126 -0.0007062562
H 3.0242963412 0.9050532262 -3.10278e-5
O 1.570345881 -1.0508198518 1.8277934041
H 2.3843316133 -0.7792410036 1.3758059639
H 1.1818025557 -0.2221204206 2.149761993
Br -2.0430657758 0.4370077676 8.9734e-5
K -0.1249681471 -2.0081695281 0.0008182148
8

O 1.570345881 -1.0508198518 1.8277934041
H 2.3843316133 -0.7792410036 1.3758059639
H 1.1818025557 -0.2221204206 2.149761993
O 0.1745697906 1.4412282838 2.115675706
H -0.1966134713 1.9460074022 2.8429692484
H -0.5870992775 1.1881498235 1.5470893209
Br -2.0430657758 0.4370077676 8.9734e-5
K -0.1249681471 -2.0081695281 0.0008182148
8

O -1.1700617706 -1.4130873699 -0.0729361804
H -1.2096395915 -2.1499770137 -0.696346491
H -0.2808161563 -1.5285214277 0.3401154381
O 0.4573794758 -2.9864192931 -1.8775825953
H 0.7360531452 -3.8110055199 -2.2820462008
H 1.017835939 -2.8721741087 -1.0825809707
Br 1.7584504098 -2.1158850194 0.9938966555
K 1.9186177968 0.9700410617 0.9079697597
8

O 1.6401516451 1.6239522934 -1.6292884935
H 0.9878547677 2.3160791864 -1.8099391496
H 1.3575168184 0.8809041675 -2.1951360575
O -1.1700617706 -1.4130873699 -0.0729361804
H -1.2096395915 -2.1499770137 -0.696346491
H -0.2808161563 -1.5285214277 0.3401154381
Br 1.7584504098 -2.1158850194 0.9938966555
K 1.9186177968 0.9700410617 0.9079697597
8

O 2.5576047463 -0.839915293 -0.6995203769
H 3.3320279533 -1.2982136809 -1.0323995166
H 1.9172570123 -1.5353857044 -0.4444274451
O 0.634168124 -0.8698434858 2.8624345855
H -0.3035599029 -0.6820898945 3.0023241273
H 0.6093050793 -1.5689745094 2.1878429274
Br -0.2087517511 -2.4155890232 -0.0233478458
K 0.0984737577 0.5388339756 -1.2180467908
8

O 1.6480858258 1.0529469325 1.2123344152
H 2.3169617567 0.558204408 0.7197203387
H 1.2982003115 0.4219589752 1.88129548
O -2.1404125102 -0.6316588942 1.9667732835
H -2.9745233265 -1.0492736649 2.194076339
H -1.7076018825 -1.2340929349 1.3277093214
Br -0.2087517511 -2.4155890232 -0.0233478458
K 0.0984737577 0.5388339756 -1.2180467908
8

O -0.0487096181 -1.4205222988 -1.4332919535
H 0.7119051858 -1.5316125477 -2.0168491483
H 0.3438398414 -1.4889163472 -0.536136346
O 0.3771399162 2.3630482477 -2.5936220842
H 0.4676612548 2.7844055633 -3.449472166
H -0.4948830479 1.9294609495 -2.5918225927
Br 1.7802997609 -1.3229535152 1.2780145418
K 1.632373633 1.33725022 -0.4375194853
8

O -4.1811326696 -0.0538298449 -0.870655514
H -5.1092212526 -0.0125060287 -1.1094973724
H -4.0963279442 0.3498872209 0.0260682903
O 0.3771399162 2.3630482477 -2.5936220842
H 0.4676612548 2.7844055633 -3.449472166
H -0.4948830479 1.9294609495 -2.5918225927
Br 1.7802997609 -1.3229535152 1.2780145418
K 1.632373633 1.33725022 -0.4375194853
8

O 0.5642801888 -2.9558337501 0.6150675535
H 0.594577317 -2.5049114331 -0.2457026699
H 1.20961596 -2.464011871 1.1602918374
O -2.579299471 -0.5520992665 -0.4665373929
H -1.878523188 -0.7444678957 -1.1110768718
H -2.453341008 -1.2053941045 0.2413747885
Br 0.4599911006 -0.6569154001 -1.8648788029
K -0.5938894885 1.5803985643 0.1704001101
8

O -2.4062250332 2.6854021764 0.0586132181
H -2.5571992535 1.7869036705 0.3879355811
H -1.4417316816 2.7949927044 0.0890907245
O 0.4699345293 2.8603783303 -0.1301328777
H 0.7809173818 3.7663154726 -0.2009814974
H 0.9657640804 2.4735414243 0.6248427297
Br 2.1918952594 0.9472617857 1.7827751398
K 1.2277614392 0.2762315565 -1.1522128693
8

O 1.3405177417 -1.377275757 -1.2956974644
H 0.4757485057 -1.8038685313 -1.407345811
H 1.3533639904 -1.1194820688 -0.3560786399
O -1.7451615378 -2.6089094304 1.0807172595
H -2.5212980005 -2.4949152799 1.632746336
H -1.0781233973 -1.9823927377 1.430912669
Br 0.4775818452 -0.30601533 1.7681856031
K -0.7014317319 1.8844703541 -0.0126639842
8

O 1.3405177417 -1.377275757 -1.2956974644
H 0.4757485057 -1.8038685313 -1.407345811
H 1.3533639904 -1.1194820688 -0.3560786399
O -1.4785916937 0.5731315156 -2.2148378902
H -0.6822396878 0.6244583814 -2.7628433751
H -1.6088921252 -0.3779985173 -2.0659575501
Br 0.4775818452 -0.30601533 1.7681856031
K -0.7014317319 1.8844703541 -0.0126639842
8

O -1.4290114826 -2.2022138701 -1.5605681065
H -1.7244012181 -2.9618959816 -2.0665408039
H -1.6483320506 -2.3919500233 -0.618735381
O -1.4785916937 0.5731315156 -2.2148378902
H -0.6822396878 0.6244583814 -2.7628433751
H -1.6088921252 -0.3779985173 -2.0659575501
Br 0.4775818452 -0.30601533 1.7681856031
K -0.7014317319 1.8844703541 -0.0126639842
8

O -0.1716567352 -2.5948210931 0.8872285454
H 0.4526836297 -2.0178922147 1.3481569598
H -1.0532310556 -2.346719526 1.2087164313
O 1.6678423243 1.0124661951 -2.1344599739
H 2.3687918687 1.3842837092 -2.6751115475
H 2.0595450658 0.850904196 -1.2484944949
Br 2.1182269606 -0.0438580941 0.8646890265
K 0.2741012135 -1.3459251417 -1.4424310164
8

O -0.4786901093 2.679123045 -1.142033688
H 0.2536249145 2.2126005391 -1.573848159
H -0.2690504773 2.6698347441 -0.1926425803
O 1.6678423243 1.0124661951 -2.1344599739
H 2.3687918687 1.3842837092 -2.6751115475
H 2.0595450658 0.850904196 -1.2484944949
Br 2.1182269606 -0.0438580941 0.8646890265
K 0.2741012135 -1.3459251417 -1.4424310164
8

O -0.1716567352 -2.5948210931 0.8872285454
H 0.4526836297 -2.0178922147 1.3481569598
H -1.0532310556 -2.346719526 1.2087164313
O -2.3673770081 -1.0326166713 -1.4848236211
H -2.6860279755 -1.3616921306 -0.6297546663
H -2.7191097531 -0.1308667801 -1.549336624
Br 2.1182269606 -0.0438580941 0.8646890265
K 0.2741012135 -1.3459251417 -1.4424310164
8

O 0.9550620629 -3.4268508105 0.2174603328
H 1.6065479182 -3.7699198722 -0.3979266462
H 1.2774619468 -2.5377367643 0.4659084887
O -1.5266919765 -0.7092682758 1.6767797505
H -1.6168545019 -1.5418676777 1.1861883459
H -0.5849328423 -0.4836640372 1.5958967952
Br 1.7156167988 -0.2863795629 0.7065261481
K 0.0674064433 0.938259262 -1.6489452403
8

O -1.6609233796 -2.9185185734 -0.190345142
H -2.1947902216 -3.7087614895 -0.086125608
H -0.721862477 -3.2054507141 -0.1229850369
O -1.5266919765 -0.7092682758 1.6767797505
H -1.6168545019 -1.5418676777 1.1861883459
H -0.5849328423 -0.4836640372 1.5958967952
Br 1.7156167988 -0.2863795629 0.7065261481
K 0.0674064433 0.938259262 -1.6489452403
8

O -1.6609233796 -2.9185185734 -0.190345142
H -2.1947902216 -3.7087614895 -0.086125608
H -0.721862477 -3.2054507141 -0.1229850369
O -3.21902895 0.9452934215 0.4196113558
H -4.0572931783 1.0377291009 0.8762302876
H -2.6398474795 0.3808825217 0.9885373504
Br 1.7156167988 -0.2863795629 0.7065261481
K 0.0674064433 0.938259262 -1.6489452403
8

O -2.3139430779 -1.9280589561 1.1895488179
H -2.9288924696 -2.5046233495 1.649013971
H -1.5339617702 -1.8284946094 1.7824051606
O -0.0394901636 -2.3188234603 -0.5646384111
H -0.9578043176 -2.3665605348 -0.2627228406
H 0.4663134709 -2.3542949454 0.2641897713
Br 0.5466831561 -1.3784699107 2.5360401322
K 0.4813984392 0.6230204014 -0.1767960631
8

O 0.7365851327 -2.3497332679 -1.1794584122
H 0.0022197754 -2.5902843094 -1.7628867283
H 0.5250169173 -2.7530305603 -0.3227403532
O -2.0858665126 -0.1395207429 0.554573321
H -1.4857996555 -0.2518743865 1.3113712773
H -2.4864420419 -1.0265775616 0.4270062178
Br 2.1918952594 0.9472617857 1.7827751398
K 1.2277614392 0.2762315565 -1.1522128693
8

O 0.7365851327 -2.3497332679 -1.1794584122
H 0.0022197754 -2.5902843094 -1.7628867283
H 0.5250169173 -2.7530305603 -0.3227403532
O 0.4699345293 2.8603783303 -0.1301328777
H 0.7809173818 3.7663154726 -0.2009814974
H 0.9657640804 2.4735414243 0.6248427297
Br 2.1918952594 0.9472617857 1.7827751398
K 1.2277614392 0.2762315565 -1.1522128693
8

O -0.2147315882 3.1537258371 -1.0936183893
H 0.2710315595 3.6189800422 -1.7778960558
H -1.0952851772 2.9846087747 -1.4664671702
O -0.5651103125 1.6463088905 2.3604461878
H -0.4367180644 2.3039481738 3.0467967337
H -0.219071855 0.799452376 2.7077517199
Br 0.5466831561 -1.3784699107 2.5360401322
K 0.4813984392 0.6230204014 -0.1767960631
8

O -0.9820866314 2.5382602804 -0.8284284533
H -0.3443381793 2.1060325213 -1.4208051821
H -0.5059009123 2.6743377632 0.00834486
O 0.9575218704 0.9673654321 -2.1572426213
H 1.4352202123 1.1746878984 -2.9634435577
H 1.6264821823 0.9254705954 -1.4384000799
Br 2.4020199153 0.2774641866 0.6110880297
K -0.0541210099 -1.2552966482 -0.6596053943
8

O 0.9575218704 0.9673654321 -2.1572426213
H 1.4352202123 1.1746878984 -2.9634435577
H 1.6264821823 0.9254705954 -1.4384000799
O 0.2891593235 2.4043247656 1.6978672992
H 0.7008246203 3.0779675442 2.2442534211
H 1.0112840668 1.7795161575 1.4473582151
Br 2.4020199153 0.2774641866 0.6110880297
K -0.0541210099 -1.2552966482 -0.6596053943
8

O -1.5737401995 -1.8053180013 1.6045647456
H -1.5483781861 -2.3948277879 2.3602824231
H -1.6712332732 -0.8895357563 1.9632621887
O -3.0122940349 -1.2508509123 -0.760260975
H -2.8554047556 -1.5841931284 0.1358756149
H -3.2898118266 -0.3245818076 -0.656338816
Br 2.4020199153 0.2774641866 0.6110880297
K -0.0541210099 -1.2552966482 -0.6596053943
8

O -1.108225555 1.5004568348 -0.5185953278
H -0.6550283379 2.117790522 0.0780807536
H -0.5363334777 1.4100923421 -1.3012698441
O 0.8122205964 0.8136328855 -2.4505124912
H 1.2130354874 1.2562883581 -3.2018014113
H 1.5097150722 0.7583664389 -1.7600061633
Br 2.5601003154 0.638897658 0.2611518605
K -0.1298468537 -1.0373864203 0.6676749042
8

O -0.6884237297 -1.6284598031 -1.8860678941
H -0.2216243792 -0.9464315458 -2.3862890429
H -1.6192529918 -1.5805657742 -2.1642511244
O -3.4473286746 -1.2886005456 -2.3732616474
H -4.0477959015 -2.0223262051 -2.2277733643
H -3.6702056763 -0.6179107472 -1.7041309112
Br 2.5601003154 0.638897658 0.2611518605
K -0.1298468537 -1.0373864203 0.6676749042
8

O 0.8122205964 0.8136328855 -2.4505124912
H 1.2130354874 1.2562883581 -3.2018014113
H 1.5097150722 0.7583664389 -1.7600061633
O -3.6780613028 0.7186432265 -0.4108113589
H -4.3053739807 1.4405851443 -0.4860477795
H -2.7802722353 1.1136069976 -0.4944983114
Br 2.5601003154 0.638897658 0.2611518605
K -0.1298468537 -1.0373864203 0.6676749042
8

O -1.7366025904 -1.2858798186 -0.9052436693
H -2.3338600881 -0.6896220569 -0.4301404846
H -1.4353047316 -0.7767610239 -1.6865676438
O -0.6806919566 0.5966384353 2.1002534917
H -1.5767901861 0.699370703 1.7475337731
H -0.1093711606 1.0926180208 1.4868649534
Br 1.3117725958 1.4334280338 -0.4078985434
K 0.661622334 -1.5548257991 0.5988155644
8

O -0.6756932083 0.311599943 -2.8978431654
H -1.2129442321 1.1119084086 -2.8851892375
H 0.1200787037 0.5754151619 -2.404657589
O -0.6806919566 0.5966384353 2.1002534917
H -1.5767901861 0.699370703 1.7475337731
H -0.1093711606 1.0926180208 1.4868649534
Br 1.3117725958 1.4334280338 -0.4078985434
K 0.661622334 -1.5548257991 0.5988155644
8

O -0.6442147869 -3.7056603105 -0.3670571061
H -0.9424026331 -4.5702173429 -0.6510836711
H -1.2885272139 -3.0540660563 -0.69743526
O -3.0043873147 0.9226682056 0.4428535581
H -3.9219198057 1.1532824135 0.6008871269
H -2.6256933554 1.6277401108 -0.1244285513
Br 1.3117725958 1.4334280338 -0.4078985434
K 0.661622334 -1.5548257991 0.5988155644
8

O 0.7992200378 -1.3719220582 3.2705478783
H 1.0343915904 -1.4409041332 4.1962072591
H 0.2143732258 -0.598928509 3.17847565
O -0.6806919566 0.5966384353 2.1002534917
H -1.5767901861 0.699370703 1.7475337731
H -0.1093711606 1.0926180208 1.4868649534
Br 1.3117725958 1.4334280338 -0.4078985434
K 0.661622334 -1.5548257991 0.5988155644
8

O -0.2714205176 1.5202004384 2.3222526865
H 0.6837932181 1.6323975854 2.4129929272
H -0.5315592919 2.0895665358 1.5811603583
O -0.8981713629 2.7419420177 -0.1828486784
H -0.8939113838 3.6640854002 -0.4504284924
H -0.1089209856 2.3314532639 -0.596987746
Br 1.5835670726 0.9286003375 -1.2142449007
K 0.5397076584 -1.0547256761 1.1981811981
8

O -1.3463568897 0.2151986161 -2.1022371279
H -1.8475241352 0.9710772372 -2.4690737504
H -1.6357603475 0.1548293665 -1.1685728241
O -2.0858665126 -0.1395207429 0.554573321
H -1.4857996555 -0.2518743865 1.3113712773
H -2.4864420419 -1.0265775616 0.4270062178
Br 2.1918952594 0.9472617857 1.7827751398
K 1.2277614392 0.2762315565 -1.1522128693
8

O 2.5271882034 0.8713439502 1.9085446229
H 3.4062543409 1.0901019262 2.2247812137
H 2.5254139849 1.055301741 0.9502779632
O -2.8099528649 0.7798457017 -1.0559489039
H -2.2838315853 1.5302596677 -0.7372522725
H -2.266372964 0.3673461845 -1.7460710498
Br 1.5835670726 0.9286003375 -1.2142449007
K 0.5397076584 -1.0547256761 1.1981811981
8

O 0.1790170987 1.3304508855 2.1597162877
H 0.6415010932 1.6783022884 2.9258219773
H 0.8664281361 0.8865430322 1.6119332341
O -1.1448928295 2.5817130225 -0.0757414577
H -2.0649066997 2.3090182742 0.0635957695
H -0.7029163905 2.386236266 0.7651036382
Br 2.2284894035 -0.0397326277 0.0985620512
K 0.0098837791 0.9260464297 -1.8299521381
8

O 0.1790170987 1.3304508855 2.1597162877
H 0.6415010932 1.6783022884 2.9258219773
H 0.8664281361 0.8865430322 1.6119332341
O 1.053576408 -3.080700045 0.3794236133
H 1.543097752 -3.4698913274 1.107888833
H 1.4738650756 -2.2080542404 0.23402992
Br 2.2284894035 -0.0397326277 0.0985620512
K 0.0098837791 0.9260464297 -1.8299521381
8

O 1.053576408 -3.080700045 0.3794236133
H 1.543097752 -3.4698913274 1.107888833
H 1.4738650756 -2.2080542404 0.23402992
O -2.1637084244 -0.2714479952 2.1588317755
H -1.9339446412 -1.1176205488 1.7417855333
H -1.3250227303 0.2057837109 2.2804410673
Br 2.2284894035 -0.0397326277 0.0985620512
K 0.0098837791 0.9260464297 -1.8299521381
8

O 1.5033673094 1.3754866473 2.1322921752
H 1.858539476 1.3442363271 3.023740724
H 1.8717765872 0.5865675776 1.6657436458
O -0.4833795739 -1.9166176801 -0.0502500848
H 0.4817093264 -1.962619571 0.064770345
H -0.846846895 -1.7200326185 0.8414639537
Br 2.689804726 -0.9354854155 0.2509091724
K 1.92467726 1.20481061 -1.7940889321
8

O -0.4833795739 -1.9166176801 -0.0502500848
H 0.4817093264 -1.962619571 0.064770345
H -0.846846895 -1.7200326185 0.8414639537
O -0.5879475565 0.449474045 -1.4024741549
H -1.4628477633 0.498271164 -1.8249178156
H -0.5522052354 -0.4400630576 -0.9762191757
Br 2.689804726 -0.9354854155 0.2509091724
K 1.92467726 1.20481061 -1.7940889321
8

O -3.2887737123 0.4141916383 -2.1055700125
H -3.8412350051 0.7922366762 -2.7923504466
H -3.6025850132 0.7826619972 -1.2413706185
O -1.1686289016 1.5472201985 1.1691036816
H -0.3351983935 1.563014848 1.6684935543
H -0.9144368837 1.2484545207 0.2762850822
Br 2.689804726 -0.9354854155 0.2509091724
K 1.92467726 1.20481061 -1.7940889321
8

O 1.5033673094 1.3754866473 2.1322921752
H 1.858539476 1.3442363271 3.023740724
H 1.8717765872 0.5865675776 1.6657436458
O -3.2887737123 0.4141916383 -2.1055700125
H -3.8412350051 0.7922366762 -2.7923504466
H -3.6025850132 0.7826619972 -1.2413706185
Br 2.689804726 -0.9354854155 0.2509091724
K 1.92467726 1.20481061 -1.7940889321
8

O -4.3447772756 -1.4810549204 1.1624233455
H -5.1153766431 -1.9958301292 1.4090700942
H -3.9692359885 -1.8878734471 0.3439938149
O -3.2887737123 0.4141916383 -2.1055700125
H -3.8412350051 0.7922366762 -2.7923504466
H -3.6025850132 0.7826619972 -1.2413706185
Br 2.689804726 -0.9354854155 0.2509091724
K 1.92467726 1.20481061 -1.7940889321
8

O 1.4788279747 -0.4116099224 -2.1005311458
H 0.7750914658 -0.0402111693 -2.6489185726
H 1.8301636713 0.3859850864 -1.6692253978
O -0.5520087024 1.6003738712 -2.5532427092
H -1.1966477545 2.0445710749 -3.1082875429
H -1.0480257158 1.2871082137 -1.7696166602
Br -1.8132978222 0.4081580583 0.2551790113
K 0.4475003506 -1.7306457035 0.0016489319
8

O 1.8020260939 2.1997982202 -0.9630950906
H 1.4043455981 2.3476393185 -0.092722306
H 1.0677850588 2.3247294261 -1.5831657113
O -0.5520087024 1.6003738712 -2.5532427092
H -1.1966477545 2.0445710749 -3.1082875429
H -1.0480257158 1.2871082137 -1.7696166602
Br -1.8132978222 0.4081580583 0.2551790113
K 0.4475003506 -1.7306457035 0.0016489319
8

O 2.1663222665 -2.735542443 1.8261201638
H 2.6750498899 -3.3001552437 2.4093902478
H 2.5308615433 -1.8390978755 1.905364495
O -0.5520087024 1.6003738712 -2.5532427092
H -1.1966477545 2.0445710749 -3.1082875429
H -1.0480257158 1.2871082137 -1.7696166602
Br -1.8132978222 0.4081580583 0.2551790113
K 0.4475003506 -1.7306457035 0.0016489319
8

O 1.386656871 -0.3040374334 -1.871467292
H 0.709288327 -0.7880011411 -2.3624926717
H 1.4354543659 -0.7939345862 -1.0307098065
O -2.3212702974 -0.1857119974 -0.3176362078
H -2.2367890831 -0.6793374037 -1.1436213446
H -1.7809414379 -0.7075860749 0.3031992991
Br 0.369448048 -1.5665242688 1.0074112381
K 0.0912824721 1.5017026164 0.1291443717
8

O 1.386656871 -0.3040374334 -1.871467292
H 0.709288327 -0.7880011411 -2.3624926717
H 1.4354543659 -0.7939345862 -1.0307098065
O -0.8949128312 -2.096154465 -1.9896263321
H -1.0649011595 -2.972818486 -2.3418546117
H -0.5284234892 -2.2313717131 -1.0927459936
Br 0.369448048 -1.5665242688 1.0074112381
K 0.0912824721 1.5017026164 0.1291443717
8

O 0.7143126555 2.323896375 1.8204155035
H 0.561987422 1.4436901056 2.1828641444
H 0.0244394581 2.422466593 1.1437721153
O 0.007655337 -2.4067448586 -1.2015560223
H 0.6534390904 -3.0017279709 -1.5890552153
H 0.3789324692 -2.1189980469 -0.3342169646
Br 0.9906992857 -1.1024299622 1.5234409231
K 2.5295895904 1.2663721719 0.1179319105
8

O -2.3212702974 -0.1857119974 -0.3176362078
H -2.2367890831 -0.6793374037 -1.1436213446
H -1.7809414379 -0.7075860749 0.3031992991
O -2.394426351 2.4470507336 0.3964602496
H -3.1698703362 2.9641730864 0.6168591259
H -2.7036132205 1.5629633499 0.1303573812
Br 0.369448048 -1.5665242688 1.0074112381
K 0.0912824721 1.5017026164 0.1291443717
8

O 1.9795362092 2.3381242506 -1.5688755775
H 2.6739096415 2.8217981791 -2.0175525246
H 1.9843370072 1.4311352185 -1.9242669603
O -0.8949128312 -2.096154465 -1.9896263321
H -1.0649011595 -2.972818486 -2.3418546117
H -0.5284234892 -2.2313717131 -1.0927459936
Br 0.369448048 -1.5665242688 1.0074112381
K 0.0912824721 1.5017026164 0.1291443717
8

O 0.8514479594 4.114396204 -1.5829091237
H 0.5306775147 4.9078436214 -2.0146963772
H 0.0734726525 3.6899657387 -1.1752758623
O 0.007655337 -2.4067448586 -1.2015560223
H 0.6534390904 -3.0017279709 -1.5890552153
H 0.3789324692 -2.1189980469 -0.3342169646
Br 0.9906992857 -1.1024299622 1.5234409231
K 2.5295895904 1.2663721719 0.1179319105
8

O -2.4219292846 -0.8712632212 1.4160549686
H -2.5785405737 -1.559227454 0.7521431054
H -1.4675259867 -0.9126659662 1.596014814
O -0.9874300536 2.3796749383 -0.4729522094
H -1.9056262421 2.2570078829 -0.1737127163
H -0.8104345828 1.5944692324 -1.0309504991
Br 0.9906992857 -1.1024299622 1.5234409231
K 2.5295895904 1.2663721719 0.1179319105
8

O -0.7822430934 -1.5820031268 -1.9189700101
H -0.4426285548 -0.758018364 -2.3002168456
H -1.7222641383 -1.4296798848 -1.7372556542
O 0.534781745 0.909558557 -2.4690505129
H 1.0236197141 1.1894330188 -3.2467967654
H 1.212190403 0.7426147206 -1.7740336244
Br 2.4806342733 0.2830692362 0.0173449133
K 0.5557242296 -2.1354108372 0.315592956
8

O 0.534781745 0.909558557 -2.4690505129
H 1.0236197141 1.1894330188 -3.2467967654
H 1.212190403 0.7426147206 -1.7740336244
O 0.3803771223 2.2252673833 1.5661503676
H 0.8202508276 2.9036225844 2.0841324093
H 1.0936439468 1.6524416793 1.2101476666
Br 2.4806342733 0.2830692362 0.0173449133
K 0.5557242296 -2.1354108372 0.315592956
8

O 0.1742056157 1.4397831019 -2.1167051774
H -0.1970762014 1.9441490076 -2.8442361265
H -0.5873882107 1.1870150369 -1.5478927378
O 0.1745697906 1.4412282838 2.115675706
H -0.1966134713 1.9460074022 2.8429692484
H -0.5870992775 1.1881498235 1.5470893209
Br -2.0430657758 0.4370077676 8.9734e-5
K -0.1249681471 -2.0081695281 0.0008182148
