2

K -0.40000000000000013 0.0 0.0
Cl 3.0883189056000004 0.0 0.0
2

K -2.6000000000000005 0.0 0.0
Cl 5.288318905600001 0.0 0.0
2

K -0.7000000000000004 0.0 0.0
Cl 3.3883189056000003 0.0 0.0
2

K -1.2499999999999998 0.0 0.0
Cl 3.9383189055999996 0.0 0.0
2

K -1.5999999999999994 0.0 0.0
Cl 4.2883189056 0.0 0.0
2

K -0.04999999999999994 0.0 0.0
Cl 2.7383189056 0.0 0.0
2

K -1.55 0.0 0.0
Cl 4.2383189056 0.0 0.0
2

K -2.25 0.0 0.0
Cl 4.9383189056 0.0 0.0
2

K -1.3500000000000003 0.0 0.0
Cl 4.038318905600001 0.0 0.0
2

K -0.20000000000000037 0.0 0.0
Cl 2.8883189056000003 0.0 0.0
2

K -2.000000000000001 0.0 0.0
Cl 4.688318905600001 0.0 0.0
2

K -0.04999999999999994 0.0 0.0
Cl 2.7383189056 0.0 0.0
2

K -0.09999999999999988 0.0 0.0
Cl 2.7883189056 0.0 0.0
2

K -1.0 0.0 0.0
Cl 3.6883189056 0.0 0.0
2

K -1.1500000000000006 0.0 0.0
Cl 3.8383189056000004 0.0 0.0
2

K -0.24999999999999972 0.0 0.0
Cl 2.9383189055999996 0.0 0.0
2

K -2.25 0.0 0.0
Cl 4.9383189056 0.0 0.0
2

K -0.09999999999999988 0.0 0.0
Cl 2.7883189056 0.0 0.0
2

K -0.7499999999999998 0.0 0.0
Cl 3.4383189055999996 0.0 0.0
2

K -1.55 0.0 0.0
Cl 4.2383189056 0.0 0.0
2

K -1.1500000000000006 0.0 0.0
Cl 3.8383189056000004 0.0 0.0
2

K -2.0500000000000003 0.0 0.0
Cl 4.7383189056 0.0 0.0
2

K -2.1000000000000005 0.0 0.0
Cl 4.788318905600001 0.0 0.0
2

K 0.20000000000000007 0.0 0.0
Cl 2.4883189056 0.0 0.0
2

K -1.5999999999999994 0.0 0.0
Cl 4.2883189056 0.0 0.0
2

K -0.04999999999999994 0.0 0.0
Cl 2.7383189056 0.0 0.0
2

K -2.45 0.0 0.0
Cl 5.1383189056 0.0 0.0
2

K -1.2499999999999998 0.0 0.0
Cl 3.9383189055999996 0.0 0.0
2

K -2.7000000000000006 0.0 0.0
Cl 5.3883189056 0.0 0.0
2

K -1.0999999999999999 0.0 0.0
Cl 3.7883189056 0.0 0.0
2

K -1.55 0.0 0.0
Cl 4.2383189056 0.0 0.0
2

K -0.7000000000000004 0.0 0.0
Cl 3.3883189056000003 0.0 0.0
2

K -2.1999999999999997 0.0 0.0
Cl 4.8883189056 0.0 0.0
2

K -0.9000000000000001 0.0 0.0
Cl 3.5883189056000004 0.0 0.0
2

K 0.20000000000000007 0.0 0.0
Cl 2.4883189056 0.0 0.0
2

K -2.1999999999999997 0.0 0.0
Cl 4.8883189056 0.0 0.0
2

K -0.7499999999999998 0.0 0.0
Cl 3.4383189055999996 0.0 0.0
2

K -0.8500000000000002 0.0 0.0
Cl 3.5383189056 0.0 0.0
2

K -1.2499999999999998 0.0 0.0
Cl 3.9383189055999996 0.0 0.0
2

K -1.1500000000000006 0.0 0.0
Cl 3.8383189056000004 0.0 0.0
2

K -1.2000000000000004 0.0 0.0
Cl 3.8883189056000007 0.0 0.0
2

K 0.0 0.0 0.0
Cl 2.6883189056 0.0 0.0
2

K -0.24999999999999972 0.0 0.0
Cl 2.9383189055999996 0.0 0.0
2

K -1.3500000000000003 0.0 0.0
Cl 4.038318905600001 0.0 0.0
2

K -2.3 0.0 0.0
Cl 4.9883189056 0.0 0.0
2

K -0.20000000000000037 0.0 0.0
Cl 2.8883189056000003 0.0 0.0
2

K -0.7499999999999998 0.0 0.0
Cl 3.4383189055999996 0.0 0.0
2

K -1.2499999999999998 0.0 0.0
Cl 3.9383189055999996 0.0 0.0
2

K -0.09999999999999988 0.0 0.0
Cl 2.7883189056 0.0 0.0
2

K -1.3000000000000003 0.0 0.0
Cl 3.9883189056000004 0.0 0.0
5

O 2.9306073826 0.7281647912 2.1108913613
H 3.5105317443 0.7842898149 2.8719982637
H 3.0539566406 -0.1683095771 1.7438588015
Cl -1.5187649837 2.2144768956 -0.9196270331
K 0.8804544547 2.0132999764 0.9630005666
5

O 0.637189141 0.8369228541 -2.1619823462
H 0.4452156179 1.6558627083 -1.6818660991
H -0.1633259361 0.2952080613 -2.0532171567
Cl -1.7347273987 -1.1185102331 -1.1764227934
K 0.9613494187 -1.9601502501 -0.2445425357
5

O -1.1838990605 0.4044625258 1.5861574821
H -1.5456332871 0.8685812052 0.8042538321
H -1.9584375519 -0.0081554938 2.0209089562
Cl -1.5187649837 2.2144768956 -0.9196270331
K 0.8804544547 2.0132999764 0.9630005666
5

O -0.8381557234 -1.0289065538 0.6849407176
H -0.5720273491 -1.7632339773 1.259726336
H -0.6329013052 -1.3008718148 -0.2345358341
Cl 0.0471453781 -1.5064657102 -2.2298227724
K -0.5871764998 1.5116230095 -1.8668893674
5

O -3.1404060756 -1.1104399565 0.2099145141
H -2.6327828363 -1.439402501 -0.550006896
H -3.2916303677 -0.1683806855 0.0228260729
Cl 1.6003664271 1.6495118274 -0.2945334459
K 0.915420496 -1.3857209979 0.232553867
5

O -1.0555121005 1.389861533 1.8240299192
H -1.1914618127 1.6811727378 2.7280063579
H -0.2961551333 1.9045646579 1.4807967133
Cl 0.1637985543 0.6513491208 -1.7144602005
K -0.8534092395 -1.1099783069 0.5579059686
5

O -2.2983199409 1.1023000223 -1.2931979391
H -3.1962673755 1.2130498169 -1.6131572695
H -2.2807988889 0.2290155695 -0.8305523205
Cl -1.953293384 -1.5917027521 0.0734952967
K 0.7938285623 -1.4916797102 -1.0366640312
5

O 3.1209236907 -1.9437853222 0.1919352992
H 4.0008316993 -2.3050805938 0.3028360304
H 3.1774464875 -0.9913507339 0.3873818588
Cl -2.3668149192 -0.2839934287 0.3452315717
K 0.5141071891 -1.361187729 -0.2104085027
5

O -2.2538354713 -0.523038869 1.8100515205
H -2.9770732512 -1.0019802284 2.2208675431
H -2.191017807 -0.8571741306 0.8875119813
Cl -1.7347273987 -1.1185102331 -1.1764227934
K 0.9613494187 -1.9601502501 -0.2445425357
5

O -2.5113335449 -0.5275233218 2.1125317953
H -2.9363268166 -0.9347692143 2.8696195491
H -2.608164385 -1.1558077172 1.3416922374
Cl 0.3840273329 0.2884395014 -1.7949995031
K 2.13731114 1.4056192409 0.455470968
5

O 2.8341242355 -0.0971789103 -0.7007097386
H 2.8291863179 0.5183764682 0.0443194981
H 2.2227981159 0.3089971119 -1.3429568482
Cl -1.7347273987 -1.1185102331 -1.1764227934
K 0.9613494187 -1.9601502501 -0.2445425357
5

O 2.5075210764 -0.1924830611 2.0498837938
H 3.0099504318 0.0604080151 2.8255448193
H 2.4486522944 0.6021682307 1.4882529933
Cl 1.6003664271 1.6495118274 -0.2945334459
K 0.915420496 -1.3857209979 0.232553867
5

O -3.4843000135 -2.2609863449 2.2869505214
H -3.7938134095 -2.6340745657 3.1142084066
H -2.8055130994 -2.8726755965 1.9399519151
Cl -0.830216403 -1.2285153686 -1.2276285207
K 0.2102996612 1.7832669505 -1.2182265241
5

O 2.9306073826 0.7281647912 2.1108913613
H 3.5105317443 0.7842898149 2.8719982637
H 3.0539566406 -0.1683095771 1.7438588015
Cl -1.5187649837 2.2144768956 -0.9196270331
K 0.8804544547 2.0132999764 0.9630005666
5

O 3.2524656992 -0.5599144465 1.2852913483
H 4.1417130908 -0.619136453 1.6390790631
H 3.0151385861 0.3993522534 1.2621618112
Cl -1.2376919083 1.2736722266 -0.7492184004
K -0.3440892055 -1.6608390031 -0.4990115795
5

O 2.3816709545 0.6836880988 -0.2184720463
H 2.2199022521 0.537110462 0.7248600686
H 2.3513405544 -0.1978324385 -0.6311056494
Cl -1.195165261 -1.4992266198 -0.9442350383
K -0.5585240271 1.305119295 0.0723717364
5

O 1.0710841484 2.5100736518 0.4976944563
H 1.1868357909 3.4272436007 0.238722264
H 0.8427951721 2.0141640483 -0.3265718341
Cl 0.1637985543 0.6513491208 -1.7144602005
K -0.8534092395 -1.1099783069 0.5579059686
5

O 3.3325879101 1.5289759398 0.1367334062
H 3.7705550618 2.0102329647 -0.5683250411
H 3.2425176717 0.5989310009 -0.2024800493
Cl 2.6783196867 -1.2017709366 -0.9445016318
K 0.0108408359 -0.5849380521 -0.0761392096
5

O 0.1971966451 0.5988834892 -2.635697456
H 0.7097096886 1.3839867313 -2.3937312743
H -0.7158689134 0.8231096597 -2.3960361352
Cl -1.953293384 -1.5917027521 0.0734952967
K 0.7938285623 -1.4916797102 -1.0366640312
5

O 2.7000997066 -0.2415923001 1.9099324093
H 2.0516406955 -0.9452332414 2.0673403232
H 3.1059945173 -0.4745304718 1.0598650045
Cl 0.541884401 -1.8811544131 -1.2544079123
K -0.1772643176 1.0425227642 -1.7409312368
5

O -0.8508436744 -0.9928543136 0.6623066033
H -0.5978118945 -1.7098334791 1.2667486011
H -0.6589907151 -1.3125270803 -0.2469590158
Cl -0.000740465 -1.5440977727 -2.2228871041
K -0.579061166 1.4564638926 -1.5270307329
5

O -0.869610056 -0.1712713107 4.0785654288
H -0.8775976142 -0.1529927885 5.0377840988
H -0.509434147 -1.0415944312 3.8231013829
Cl 0.0471453781 -1.5064657102 -2.2298227724
K -0.5871764998 1.5116230095 -1.8668893674
5

O 0.848278611 1.9548201325 0.9046402027
H 0.8540772509 2.393771368 1.7570464908
H 1.7996902868 1.8885348399 0.617450829
Cl 2.6783196867 -1.2017709366 -0.9445016318
K 0.0108408359 -0.5849380521 -0.0761392096
5

O 1.654003364 -1.8682669555 1.1480594982
H 2.1115103322 -2.0294579743 0.3127634591
H 2.1084013003 -1.0661484231 1.4660103906
Cl 0.1637985543 0.6513491208 -1.7144602005
K -0.8534092395 -1.1099783069 0.5579059686
5

O -1.766231713 -0.2083935797 1.6103897494
H -1.6955787374 -0.4698603855 0.6743429255
H -2.4908405159 -0.7527075157 1.9733150503
Cl -0.830216403 -1.2285153686 -1.2276285207
K 0.2102996612 1.7832669505 -1.2182265241
5

O 3.3325879101 1.5289759398 0.1367334062
H 3.7705550618 2.0102329647 -0.5683250411
H 3.2425176717 0.5989310009 -0.2024800493
Cl 2.6783196867 -1.2017709366 -0.9445016318
K 0.0108408359 -0.5849380521 -0.0761392096
5

O -1.766231713 -0.2083935797 1.6103897494
H -1.6955787374 -0.4698603855 0.6743429255
H -2.4908405159 -0.7527075157 1.9733150503
Cl -0.830216403 -1.2285153686 -1.2276285207
K 0.2102996612 1.7832669505 -1.2182265241
5

O 2.8341242355 -0.0971789103 -0.7007097386
H 2.8291863179 0.5183764682 0.0443194981
H 2.2227981159 0.3089971119 -1.3429568482
Cl -1.7347273987 -1.1185102331 -1.1764227934
K 0.9613494187 -1.9601502501 -0.2445425357
5

O -3.648056427 -0.0768790102 -2.2579428446
H -4.4525847547 0.1425160673 -1.7829616077
H -2.9531925708 0.4775245803 -1.855319336
Cl -1.2376919083 1.2736722266 -0.7492184004
K -0.3440892055 -1.6608390031 -0.4990115795
5

O -2.8624602065 1.2085479886 -1.3422058302
H -2.7844655415 1.8536402284 -0.6324965908
H -3.4129689829 0.4987416481 -0.9705502222
Cl 0.541884401 -1.8811544131 -1.2544079123
K -0.1772643176 1.0425227642 -1.7409312368
5

O -1.2246222229 2.9674527793 0.4637527445
H -1.3054618687 3.8618596076 0.7997562005
H -0.4184897317 2.9405447229 -0.1144318796
Cl 1.9292209139 -0.499889611 2.1030578713
K 0.2967213722 -1.2339421557 -0.4151307811
5

O 3.0683138941 1.4672248819 0.0413733009
H 3.7662682812 2.0312229751 0.3823037792
H 2.7498501006 0.9367925949 0.8088487567
Cl 1.9292209139 -0.499889611 2.1030578713
K 0.2967213722 -1.2339421557 -0.4151307811
5

O -3.0692331534 1.6442303111 1.2507869852
H -3.6318661955 2.171527062 1.8185974598
H -2.1524926431 1.7634604019 1.5599552164
Cl 0.3476758181 0.3126728283 -2.2976770076
K -1.9682186105 -0.0561216988 -0.5131999169
5

O 0.2450540764 -2.3924913719 2.8501220982
H 0.2439201011 -3.3133600684 3.1187818624
H 1.158455638 -2.1818321796 2.5222493771
Cl -0.000740465 -1.5440977727 -2.2228871041
K -0.579061166 1.4564638926 -1.5270307329
5

O -1.0555121005 1.389861533 1.8240299192
H -1.1914618127 1.6811727378 2.7280063579
H -0.2961551333 1.9045646579 1.4807967133
Cl 0.1637985543 0.6513491208 -1.7144602005
K -0.8534092395 -1.1099783069 0.5579059686
5

O 0.8131689478 -2.0652098047 1.4412633811
H 1.1581640869 -2.7473214703 2.0211332571
H 0.1350891015 -2.5057661889 0.8686794802
Cl 0.5875203408 2.3734469483 -1.6376567868
K 1.6043717237 0.0194119173 -0.1672005063
5

O -1.1838990605 0.4044625258 1.5861574821
H -1.5456332871 0.8685812052 0.8042538321
H -1.9584375519 -0.0081554938 2.0209089562
Cl -1.5187649837 2.2144768956 -0.9196270331
K 0.8804544547 2.0132999764 0.9630005666
5

O 1.5004935929 2.7308782133 -1.1925696431
H 1.909112487 3.5751295195 -1.391617287
H 0.6678384869 2.9193482147 -0.6870947863
Cl -1.953293384 -1.5917027521 0.0734952967
K 0.7938285623 -1.4916797102 -1.0366640312
5

O 0.1865696881 1.3889929267 2.472916655
H 0.4737469965 1.7700409192 3.3053796569
H -0.4528610686 0.6686572219 2.7030615417
Cl -1.953293384 -1.5917027521 0.0734952967
K 0.7938285623 -1.4916797102 -1.0366640312
5

O -2.4301319613 0.0648128399 -1.2653908915
H -2.5759110852 -0.1344846946 -0.333365112
H -1.9814197706 -0.7191905488 -1.6204669876
Cl 0.0477589041 -1.6509681997 -2.4025050244
K -0.1749653129 1.3714921973 -2.0928847585
5

O -2.2983199409 1.1023000223 -1.2931979391
H -3.1962673755 1.2130498169 -1.6131572695
H -2.2807988889 0.2290155695 -0.8305523205
Cl -1.953293384 -1.5917027521 0.0734952967
K 0.7938285623 -1.4916797102 -1.0366640312
5

O -3.648056427 -0.0768790102 -2.2579428446
H -4.4525847547 0.1425160673 -1.7829616077
H -2.9531925708 0.4775245803 -1.855319336
Cl -1.2376919083 1.2736722266 -0.7492184004
K -0.3440892055 -1.6608390031 -0.4990115795
5

O -3.3290779791 -1.1035320941 2.3591877903
H -4.2428965958 -0.826183818 2.4445072988
H -3.269630262 -1.6177543205 1.5258498349
Cl -1.5187649837 2.2144768956 -0.9196270331
K 0.8804544547 2.0132999764 0.9630005666
5

O -1.1039138111 -0.0014934503 2.2811682472
H -0.4252116113 -0.6908739497 2.2542400432
H -0.6482729424 0.8215148069 2.0287511396
Cl 0.5875203408 2.3734469483 -1.6376567868
K 1.6043717237 0.0194119173 -0.1672005063
5

O -0.869610056 -0.1712713107 4.0785654288
H -0.8775976142 -0.1529927885 5.0377840988
H -0.509434147 -1.0415944312 3.8231013829
Cl 0.0471453781 -1.5064657102 -2.2298227724
K -0.5871764998 1.5116230095 -1.8668893674
5

O 0.1971966451 0.5988834892 -2.635697456
H 0.7097096886 1.3839867313 -2.3937312743
H -0.7158689134 0.8231096597 -2.3960361352
Cl -1.953293384 -1.5917027521 0.0734952967
K 0.7938285623 -1.4916797102 -1.0366640312
5

O 0.7560323739 2.8464194468 0.7769607382
H 0.6599908381 3.6459132196 1.2991257107
H 0.0515412533 2.8696508811 0.0970165352
Cl -2.9326533365 0.5138482585 0.5025865518
K -0.615366558 -1.4367277816 -0.3423707743
5

O -0.920501701 0.9162749557 -2.0957921746
H -1.6556750909 1.3270338073 -1.6119631511
H -0.1129739489 1.2667688462 -1.6776171441
Cl 1.6003664271 1.6495118274 -0.2945334459
K 0.915420496 -1.3857209979 0.232553867
5

O -3.0737643645 0.4899674066 0.5161636422
H -3.977264856 0.3354807034 0.7952080635
H -2.7789831438 -0.3267505935 0.0714958684
Cl -1.195165261 -1.4992266198 -0.9442350383
K -0.5585240271 1.305119295 0.0723717364
5

O -2.8624602065 1.2085479886 -1.3422058302
H -2.7844655415 1.8536402284 -0.6324965908
H -3.4129689829 0.4987416481 -0.9705502222
Cl 0.541884401 -1.8811544131 -1.2544079123
K -0.1772643176 1.0425227642 -1.7409312368
8

O 0.848278611 1.9548201325 0.9046402027
H 0.8540772509 2.393771368 1.7570464908
H 1.7996902868 1.8885348399 0.617450829
O -5.4281038987 -0.7870576096 0.156962276
H -5.8927999798 -0.9177617936 0.986994134
H -5.7396155467 -1.481193762 -0.4289687741
Cl 2.6783196867 -1.2017709366 -0.9445016318
K 0.0108408359 -0.5849380521 -0.0761392096
8

O 2.7244385344 1.9344410303 -0.2616529501
H 3.4992264086 2.4901752077 -0.1733737096
H 3.0282259021 1.0711305839 -0.6123443751
O 2.9222169509 -0.6230235358 -1.1636161255
H 2.2869300734 -0.6842026586 -1.8942561222
H 2.5447355194 -1.1717397058 -0.4581464855
Cl -1.2885863799 -1.7982042164 -0.8143047837
K 0.2667077462 0.8854828599 -0.1575418012
8

O 2.13579752 -0.8405655374 2.447183691
H 3.0469042616 -0.8558491672 2.7429214148
H 1.885232746 0.0971162355 2.362036102
O -1.5007600943 -0.2916269831 2.3418858493
H -1.6868824749 -0.4818876441 3.2633772464
H -2.3506875228 -0.0106639255 1.9356115804
Cl -1.5645433924 0.4001732618 -1.3978019986
K 0.357320085 -1.1446554058 0.3926830481
8

O 0.7228701126 -0.9395896958 -2.1709008508
H -0.17404181 -0.9297209168 -2.5254927135
H 0.6334990277 -1.457356919 -1.3484242569
O -1.7539051733 2.5913620225 0.6245376063
H -2.3418172163 1.9521153744 0.1971867242
H -1.6381682746 2.2582836429 1.5260062152
Cl -2.3643952246 -0.1433541781 -1.1240346792
K 0.2522658417 1.5140425482 -0.8870267326
8

O 4.0794897165 -1.2153853414 0.0337677452
H 5.036327562 -1.2662980274 0.0469580078
H 3.8490281124 -0.4419664604 -0.5140183461
O -0.5835784677 -0.1159210376 -1.8380797398
H -1.0627104494 0.5101486267 -1.2615359315
H 0.3186535102 0.2528457451 -1.9085783884
Cl 2.287799625 0.9798142457 -1.2629364489
K 1.496249821 -1.217985633 0.718184563
8

O -1.7327504482 -1.7192085771 0.9078186498
H -1.1986635892 -2.1790144232 1.569136277
H -1.1466349977 -1.708000069 0.1251422992
O 0.9102050171 -2.5366550107 1.775696058
H 1.3121196134 -3.3825204738 1.9879473008
H 0.9149107322 -2.4740355519 0.7983910583
Cl 0.541884401 -1.8811544131 -1.2544079123
K -0.1772643176 1.0425227642 -1.7409312368
8

O 1.2600443386 0.9370821901 -2.8125670451
H 1.3390975737 1.7096165086 -2.2387695975
H 0.315696507 0.7196363888 -2.7484399787
O 0.2539500501 2.7447711472 -0.6154074538
H -0.1139931255 3.6257813491 -0.7154171975
H -0.4609451873 2.1196361605 -0.8721198243
Cl -1.5645433924 0.4001732618 -1.3978019986
K 0.357320085 -1.1446554058 0.3926830481
8

O -2.2983199409 1.1023000223 -1.2931979391
H -3.1962673755 1.2130498169 -1.6131572695
H -2.2807988889 0.2290155695 -0.8305523205
O 0.1971966451 0.5988834892 -2.635697456
H 0.7097096886 1.3839867313 -2.3937312743
H -0.7158689134 0.8231096597 -2.3960361352
Cl -1.953293384 -1.5917027521 0.0734952967
K 0.7938285623 -1.4916797102 -1.0366640312
8

O 2.6198312369 -0.8833165808 -1.7997596522
H 3.0831297843 -0.9046992708 -2.6381053912
H 2.5312929241 0.0569999181 -1.5587138659
O 2.5075210764 -0.1924830611 2.0498837938
H 3.0099504318 0.0604080151 2.8255448193
H 2.4486522944 0.6021682307 1.4882529933
Cl 1.6003664271 1.6495118274 -0.2945334459
K 0.915420496 -1.3857209979 0.232553867
8

O -0.2586147008 2.2383997592 2.0040500715
H -0.6502666887 3.0987492479 2.1733728761
H -0.6577477715 1.9327975394 1.1583479342
O -3.648056427 -0.0768790102 -2.2579428446
H -4.4525847547 0.1425160673 -1.7829616077
H -2.9531925708 0.4775245803 -1.855319336
Cl -1.2376919083 1.2736722266 -0.7492184004
K -0.3440892055 -1.6608390031 -0.4990115795
8

O -0.1115612282 0.3148790892 1.8454804276
H 0.2214431781 1.1940609195 1.6040031737
H -1.0793293705 0.4027151353 1.7733992523
O -2.9955118518 -2.5653217503 0.1511750496
H -3.7508173154 -3.1317963295 0.3145638817
H -3.2947357082 -1.6512955963 0.3191250474
Cl -2.9326533365 0.5138482585 0.5025865518
K -0.615366558 -1.4367277816 -0.3423707743
8

O -2.0151945914 2.1218911729 0.4686915523
H -2.4618806297 2.9693948654 0.4608135665
H -2.7146836943 1.4426802004 0.3548212767
O -3.6844730059 0.0163158531 0.0167803824
H -4.1586295892 -0.4380655263 0.7164304906
H -3.0259414763 -0.630898491 -0.3087289757
Cl -1.2885863799 -1.7982042164 -0.8143047837
K 0.2667077462 0.8854828599 -0.1575418012
8

O 2.5075210764 -0.1924830611 2.0498837938
H 3.0099504318 0.0604080151 2.8255448193
H 2.4486522944 0.6021682307 1.4882529933
O -2.9244949617 1.6853096843 -0.2170540833
H -3.5253991716 2.4319180221 -0.1796733326
H -2.2519838199 1.8153559803 0.498876646
Cl 1.6003664271 1.6495118274 -0.2945334459
K 0.915420496 -1.3857209979 0.232553867
8

O -2.3154397513 1.7762937974 0.0533485463
H -2.441210851 1.3343986145 0.9045245356
H -2.2777982573 1.0243627249 -0.5653287741
O 0.5758475415 -0.7468516731 2.0965259182
H 0.9805598406 0.1322269796 2.0389850881
H -0.3751667995 -0.6030707427 2.2200531687
Cl -1.7347273987 -1.1185102331 -1.1764227934
K 0.9613494187 -1.9601502501 -0.2445425357
8

O 0.7228701126 -0.9395896958 -2.1709008508
H -0.17404181 -0.9297209168 -2.5254927135
H 0.6334990277 -1.457356919 -1.3484242569
O -1.7539051733 2.5913620225 0.6245376063
H -2.3418172163 1.9521153744 0.1971867242
H -1.6381682746 2.2582836429 1.5260062152
Cl -2.3643952246 -0.1433541781 -1.1240346792
K 0.2522658417 1.5140425482 -0.8870267326
8

O -2.9693355577 0.6634491469 -0.0872935087
H -3.7070407783 0.5072807452 0.5061351207
H -2.3845560403 -0.1184554621 0.0224221765
O 1.1747883137 -2.2434983648 -1.688446328
H 1.4829204671 -3.1328789127 -1.5022183955
H 0.4322557885 -2.0945629812 -1.0621791282
Cl -0.8375287286 -1.4893181854 0.5315017847
K 0.8606451069 0.8912471197 0.6009652185
8

O -0.5258305713 -2.4972732364 -0.6825285665
H -0.5230897383 -3.2338809164 -1.2976443531
H -0.5684513991 -1.6692648463 -1.2284621388
O -0.5835784677 -0.1159210376 -1.8380797398
H -1.0627104494 0.5101486267 -1.2615359315
H 0.3186535102 0.2528457451 -1.9085783884
Cl 2.287799625 0.9798142457 -1.2629364489
K 1.496249821 -1.217985633 0.718184563
8

O 0.5357466923 2.8057860123 0.4878151675
H 0.8878359874 3.6932919689 0.5849100015
H 1.1620990637 2.327477934 -0.1030610682
O -0.5835784677 -0.1159210376 -1.8380797398
H -1.0627104494 0.5101486267 -1.2615359315
H 0.3186535102 0.2528457451 -1.9085783884
Cl 2.287799625 0.9798142457 -1.2629364489
K 1.496249821 -1.217985633 0.718184563
8

O -0.8199789088 0.8894817169 2.0684210442
H -0.7800595743 1.0989053307 3.0042819523
H -1.7621320871 0.7569101898 1.8486629301
O 0.5124504312 -1.6600584741 1.4796486493
H 0.0249789204 -0.9027407921 1.8322584822
H 1.4246266975 -1.3102555202 1.3370261333
Cl 3.071922477 -0.1361857104 0.7801787108
K 0.8450685631 1.5714910164 -0.1117590756
8

O -0.3576330028 -1.8346055451 2.5890725318
H -0.1956191546 -2.5125474618 3.2477967749
H 0.4904072835 -1.3573285929 2.4655459836
O 1.8982771655 -3.0559917146 0.1906548441
H 2.5646941786 -3.2588956867 -0.4700704398
H 2.2186398499 -2.2530475005 0.636153392
Cl 1.9905808043 -0.1611928005 1.4950549064
K -0.3816338493 -1.5574340657 -0.3006925645
8

O 1.2600443386 0.9370821901 -2.8125670451
H 1.3390975737 1.7096165086 -2.2387695975
H 0.315696507 0.7196363888 -2.7484399787
O 0.2539500501 2.7447711472 -0.6154074538
H -0.1139931255 3.6257813491 -0.7154171975
H -0.4609451873 2.1196361605 -0.8721198243
Cl -1.5645433924 0.4001732618 -1.3978019986
K 0.357320085 -1.1446554058 0.3926830481
8

O -0.2655675641 1.7222560192 -2.9256834094
H -0.1717905005 2.2864030269 -3.6953081627
H -0.6034776838 2.2881100381 -2.1912549949
O 1.8982771655 -3.0559917146 0.1906548441
H 2.5646941786 -3.2588956867 -0.4700704398
H 2.2186398499 -2.2530475005 0.636153392
Cl 1.9905808043 -0.1611928005 1.4950549064
K -0.3816338493 -1.5574340657 -0.3006925645
8

O 2.6198312369 -0.8833165808 -1.7997596522
H 3.0831297843 -0.9046992708 -2.6381053912
H 2.5312929241 0.0569999181 -1.5587138659
O 2.5075210764 -0.1924830611 2.0498837938
H 3.0099504318 0.0604080151 2.8255448193
H 2.4486522944 0.6021682307 1.4882529933
Cl 1.6003664271 1.6495118274 -0.2945334459
K 0.915420496 -1.3857209979 0.232553867
8

O 1.2600443386 0.9370821901 -2.8125670451
H 1.3390975737 1.7096165086 -2.2387695975
H 0.315696507 0.7196363888 -2.7484399787
O 0.2539500501 2.7447711472 -0.6154074538
H -0.1139931255 3.6257813491 -0.7154171975
H -0.4609451873 2.1196361605 -0.8721198243
Cl -1.5645433924 0.4001732618 -1.3978019986
K 0.357320085 -1.1446554058 0.3926830481
8

O 1.1747883137 -2.2434983648 -1.688446328
H 1.4829204671 -3.1328789127 -1.5022183955
H 0.4322557885 -2.0945629812 -1.0621791282
O 2.5943824145 0.0059764998 -1.1954060044
H 3.1776113286 0.2400789605 -1.9185496804
H 2.1899050751 -0.8575864757 -1.4413394876
Cl -0.8375287286 -1.4893181854 0.5315017847
K 0.8606451069 0.8912471197 0.6009652185
8

O 1.2189478078 -1.6034152488 0.9041103599
H 1.3576770408 -2.1810222919 1.6571167057
H 0.4031042737 -1.9180247622 0.4568522928
O 0.5654446596 -0.3363683436 -2.7402132928
H 0.3806854099 -0.293194616 -3.6803334108
H -0.1020831261 -0.943082767 -2.3524314145
Cl -1.2885863799 -1.7982042164 -0.8143047837
K 0.2667077462 0.8854828599 -0.1575418012
8

O -2.2983199409 1.1023000223 -1.2931979391
H -3.1962673755 1.2130498169 -1.6131572695
H -2.2807988889 0.2290155695 -0.8305523205
O 0.1971966451 0.5988834892 -2.635697456
H 0.7097096886 1.3839867313 -2.3937312743
H -0.7158689134 0.8231096597 -2.3960361352
Cl -1.953293384 -1.5917027521 0.0734952967
K 0.7938285623 -1.4916797102 -1.0366640312
8

O -0.8199789088 0.8894817169 2.0684210442
H -0.7800595743 1.0989053307 3.0042819523
H -1.7621320871 0.7569101898 1.8486629301
O 0.5124504312 -1.6600584741 1.4796486493
H 0.0249789204 -0.9027407921 1.8322584822
H 1.4246266975 -1.3102555202 1.3370261333
Cl 3.071922477 -0.1361857104 0.7801787108
K 0.8450685631 1.5714910164 -0.1117590756
8

O 3.78071406 0.2745397279 0.8804566958
H 4.6252492869 0.1613847475 1.3210508327
H 3.6712864892 -0.4997865917 0.2742961384
O 0.7479271508 -2.2843386391 0.3054821932
H -0.1326768165 -2.6977591238 0.3329273671
H 0.7009814446 -1.4804197788 0.8550362345
Cl -2.3643952246 -0.1433541781 -1.1240346792
K 0.2522658417 1.5140425482 -0.8870267326
8

O 0.5758475415 -0.7468516731 2.0965259182
H 0.9805598406 0.1322269796 2.0389850881
H -0.3751667995 -0.6030707427 2.2200531687
O -2.2538354713 -0.523038869 1.8100515205
H -2.9770732512 -1.0019802284 2.2208675431
H -2.191017807 -0.8571741306 0.8875119813
Cl -1.7347273987 -1.1185102331 -1.1764227934
K 0.9613494187 -1.9601502501 -0.2445425357
8

O 0.5357466923 2.8057860123 0.4878151675
H 0.8878359874 3.6932919689 0.5849100015
H 1.1620990637 2.327477934 -0.1030610682
O 4.0794897165 -1.2153853414 0.0337677452
H 5.036327562 -1.2662980274 0.0469580078
H 3.8490281124 -0.4419664604 -0.5140183461
Cl 2.287799625 0.9798142457 -1.2629364489
K 1.496249821 -1.217985633 0.718184563
8

O -2.2983199409 1.1023000223 -1.2931979391
H -3.1962673755 1.2130498169 -1.6131572695
H -2.2807988889 0.2290155695 -0.8305523205
O 0.1971966451 0.5988834892 -2.635697456
H 0.7097096886 1.3839867313 -2.3937312743
H -0.7158689134 0.8231096597 -2.3960361352
Cl -1.953293384 -1.5917027521 0.0734952967
K 0.7938285623 -1.4916797102 -1.0366640312
8

O -1.624855755 1.6196458403 1.4308758748
H -2.5414438752 1.8952468035 1.3350607436
H -1.2868091586 1.5691863479 0.5120891253
O -1.4507477618 -1.0985814877 2.235138013
H -0.5670329722 -1.2324992562 2.5947442837
H -1.5243655445 -0.137838096 2.0964479473
Cl -0.5037513423 1.2600633969 -1.4576713219
K -0.2171554302 -1.5715093666 -0.3659845123
8

O -1.7327504482 -1.7192085771 0.9078186498
H -1.1986635892 -2.1790144232 1.569136277
H -1.1466349977 -1.708000069 0.1251422992
O 0.9102050171 -2.5366550107 1.775696058
H 1.3121196134 -3.3825204738 1.9879473008
H 0.9149107322 -2.4740355519 0.7983910583
Cl 0.541884401 -1.8811544131 -1.2544079123
K -0.1772643176 1.0425227642 -1.7409312368
8

O -3.6271790477 0.0727177427 -1.9114675862
H -2.9742301771 -0.1295189804 -2.5895348133
H -3.2868922128 0.8806932035 -1.4998404955
O -2.6239565432 0.2362275919 2.0594939147
H -3.3151703467 0.3172664239 2.7194824565
H -2.8625373852 -0.532709889 1.4799569334
Cl 2.287799625 0.9798142457 -1.2629364489
K 1.496249821 -1.217985633 0.718184563
8

O -2.4294052513 -2.5196901542 -1.9737834262
H -2.6870730528 -3.1532674882 -2.6448925174
H -2.9687197533 -1.7183680759 -2.1359321475
O -3.648056427 -0.0768790102 -2.2579428446
H -4.4525847547 0.1425160673 -1.7829616077
H -2.9531925708 0.4775245803 -1.855319336
Cl -1.2376919083 1.2736722266 -0.7492184004
K -0.3440892055 -1.6608390031 -0.4990115795
8

O 3.3951299709 -0.7882152012 -0.8197914833
H 4.0719486094 -1.3146115239 -1.2507766141
H 2.5362332627 -1.2163588158 -1.0283537978
O 2.3566792707 1.8615008296 -1.2527480267
H 2.9065297983 1.0659192896 -1.2001384425
H 2.3623486464 2.2212124083 -0.3524656461
Cl 0.541884401 -1.8811544131 -1.2544079123
K -0.1772643176 1.0425227642 -1.7409312368
8

O -0.9671682798 1.7427949131 1.5992563857
H -0.9281863118 0.8306390558 1.9261319437
H -0.1326737133 1.8747075171 1.1141276953
O -3.1404060756 -1.1104399565 0.2099145141
H -2.6327828363 -1.439402501 -0.550006896
H -3.2916303677 -0.1683806855 0.0228260729
Cl 1.6003664271 1.6495118274 -0.2945334459
K 0.915420496 -1.3857209979 0.232553867
8

O 0.7479271508 -2.2843386391 0.3054821932
H -0.1326768165 -2.6977591238 0.3329273671
H 0.7009814446 -1.4804197788 0.8550362345
O 0.7228701126 -0.9395896958 -2.1709008508
H -0.17404181 -0.9297209168 -2.5254927135
H 0.6334990277 -1.457356919 -1.3484242569
Cl -2.3643952246 -0.1433541781 -1.1240346792
K 0.2522658417 1.5140425482 -0.8870267326
8

O 0.848278611 1.9548201325 0.9046402027
H 0.8540772509 2.393771368 1.7570464908
H 1.7996902868 1.8885348399 0.617450829
O -5.4281038987 -0.7870576096 0.156962276
H -5.8927999798 -0.9177617936 0.986994134
H -5.7396155467 -1.481193762 -0.4289687741
Cl 2.6783196867 -1.2017709366 -0.9445016318
K 0.0108408359 -0.5849380521 -0.0761392096
8

O 0.848278611 1.9548201325 0.9046402027
H 0.8540772509 2.393771368 1.7570464908
H 1.7996902868 1.8885348399 0.617450829
O -1.1016711995 1.9665466484 -0.9849278172
H -0.9930476032 2.523416792 -1.7576012302
H -0.4117474098 2.2299587432 -0.3455276052
Cl 2.6783196867 -1.2017709366 -0.9445016318
K 0.0108408359 -0.5849380521 -0.0761392096
8

O -0.1115612282 0.3148790892 1.8454804276
H 0.2214431781 1.1940609195 1.6040031737
H -1.0793293705 0.4027151353 1.7733992523
O -2.9955118518 -2.5653217503 0.1511750496
H -3.7508173154 -3.1317963295 0.3145638817
H -3.2947357082 -1.6512955963 0.3191250474
Cl -2.9326533365 0.5138482585 0.5025865518
K -0.615366558 -1.4367277816 -0.3423707743
8

O -1.2951112084 2.9980196998 -0.7961843383
H -2.1408317848 2.5594551907 -0.6140261895
H -0.7521856056 2.8529132149 -0.0046706552
O 0.1158672372 2.2448765289 1.5803257108
H 0.3826602262 2.8564929591 2.2706039618
H 0.825100971 1.5623472061 1.5341025112
Cl 1.9905808043 -0.1611928005 1.4950549064
K -0.3816338493 -1.5574340657 -0.3006925645
8

O 1.1747883137 -2.2434983648 -1.688446328
H 1.4829204671 -3.1328789127 -1.5022183955
H 0.4322557885 -2.0945629812 -1.0621791282
O -1.1262778447 2.6108437292 0.2708838585
H -1.3928457448 3.4459051588 -0.1156185084
H -1.8900914686 2.0000975087 0.154580797
Cl -0.8375287286 -1.4893181854 0.5315017847
K 0.8606451069 0.8912471197 0.6009652185
8

O 1.5394553702 -1.8550097487 -0.9987466
H 2.2412145527 -1.5189658662 -0.4179102925
H 1.2013841694 -1.0575403641 -1.4494325884
O -0.5853606948 1.5941579097 1.2031337738
H -0.2164555941 1.6212032557 0.3037850203
H -0.0704323256 0.9066898555 1.6734043229
Cl 0.1551326811 0.8722100787 -1.8264360118
K -2.0689961269 -0.4257775303 -0.3442618074
8

O -0.8199789088 0.8894817169 2.0684210442
H -0.7800595743 1.0989053307 3.0042819523
H -1.7621320871 0.7569101898 1.8486629301
O -1.7058153381 1.7634620357 -1.0778432168
H -2.4140755827 1.9957236565 -0.4696318691
H -1.9388048391 0.8679031361 -1.3671498186
Cl 3.071922477 -0.1361857104 0.7801787108
K 0.8450685631 1.5714910164 -0.1117590756
8

O -0.8339806971 0.2919750202 2.5139163155
H -0.5320093736 0.9491297428 3.1515601971
H -0.0446784873 0.1453700195 1.9508109991
O 0.4262204222 -0.130071396 -3.7616745653
H 0.6642629052 -0.0200122085 -4.6830632477
H -0.0170886203 0.7003761026 -3.4921924806
Cl 1.785842796 0.0242570667 0.8109642419
K 0.4494890701 -1.5279337756 -1.4931480167
8

O 1.6397466805 1.8166243716 -1.7285555323
H 1.7206000525 2.4359083389 -2.4570516597
H 0.6799361541 1.7277883466 -1.5452853141
O 2.1504809293 -1.0118961196 -1.3235778368
H 2.1299004608 -0.1015558526 -1.6523020171
H 2.6960180372 -0.9661141676 -0.5228009385
Cl -1.2376919083 1.2736722266 -0.7492184004
K -0.3440892055 -1.6608390031 -0.4990115795
8

O 0.5357466923 2.8057860123 0.4878151675
H 0.8878359874 3.6932919689 0.5849100015
H 1.1620990637 2.327477934 -0.1030610682
O 4.0794897165 -1.2153853414 0.0337677452
H 5.036327562 -1.2662980274 0.0469580078
H 3.8490281124 -0.4419664604 -0.5140183461
Cl 2.287799625 0.9798142457 -1.2629364489
K 1.496249821 -1.217985633 0.718184563
8

O -0.1115612282 0.3148790892 1.8454804276
H 0.2214431781 1.1940609195 1.6040031737
H -1.0793293705 0.4027151353 1.7733992523
O -1.2314816325 2.4755544739 -1.0794204497
H -1.7791066477 3.1165841529 -1.53859088
H -1.8594278385 1.8771754852 -0.6007727845
Cl -2.9326533365 0.5138482585 0.5025865518
K -0.615366558 -1.4367277816 -0.3423707743
