2

K 0.29999999999999993 0.0 0.0
Cl 2.3883189056000003 0.0 0.0
2

K 0.25 0.0 0.0
Cl 2.4383189056 0.0 0.0
2

K 0.14999999999999983 0.0 0.0
Cl 2.5383189056 0.0 0.0
2

K 0.10000000000000019 0.0 0.0
Cl 2.5883189056 0.0 0.0
2

K 0.04999999999999994 0.0 0.0
Cl 2.6383189056000003 0.0 0.0
2

K -0.14999999999999983 0.0 0.0
Cl 2.8383189056 0.0 0.0
2

K -0.29999999999999966 0.0 0.0
Cl 2.9883189056 0.0 0.0
2

K -0.3500000000000002 0.0 0.0
Cl 3.0383189056 0.0 0.0
2

K -0.45000000000000007 0.0 0.0
Cl 3.1383189056000003 0.0 0.0
2

K -0.5 0.0 0.0
Cl 3.1883189056 0.0 0.0
2

K -0.5499999999999999 0.0 0.0
Cl 3.2383189056 0.0 0.0
2

K -0.5999999999999999 0.0 0.0
Cl 3.2883189056 0.0 0.0
2

K -0.6499999999999999 0.0 0.0
Cl 3.3383189056 0.0 0.0
2

K -0.7999999999999997 0.0 0.0
Cl 3.4883189056 0.0 0.0
2

K -0.9500000000000001 0.0 0.0
Cl 3.6383189056000003 0.0 0.0
2

K -1.05 0.0 0.0
Cl 3.7383189056 0.0 0.0
2

K -1.3999999999999997 0.0 0.0
Cl 4.0883189055999996 0.0 0.0
2

K -1.4500000000000002 0.0 0.0
Cl 4.1383189056 0.0 0.0
2

K -1.5 0.0 0.0
Cl 4.1883189056 0.0 0.0
2

K -1.6500000000000006 0.0 0.0
Cl 4.3383189056 0.0 0.0
2

K -1.7000000000000004 0.0 0.0
Cl 4.3883189056 0.0 0.0
2

K -1.7499999999999998 0.0 0.0
Cl 4.4383189056 0.0 0.0
2

K -1.7999999999999998 0.0 0.0
Cl 4.4883189056 0.0 0.0
2

K -1.8500000000000003 0.0 0.0
Cl 4.538318905600001 0.0 0.0
2

K -1.8999999999999997 0.0 0.0
Cl 4.5883189055999996 0.0 0.0
2

K -1.9500000000000002 0.0 0.0
Cl 4.6383189056 0.0 0.0
2

K -2.1499999999999995 0.0 0.0
Cl 4.8383189055999996 0.0 0.0
2

K -2.3500000000000005 0.0 0.0
Cl 5.038318905600001 0.0 0.0
2

K -2.4000000000000004 0.0 0.0
Cl 5.0883189056 0.0 0.0
2

K -2.5 0.0 0.0
Cl 5.1883189056 0.0 0.0
2

K -2.5500000000000003 0.0 0.0
Cl 5.2383189056 0.0 0.0
2

K -2.6500000000000004 0.0 0.0
Cl 5.3383189056 0.0 0.0
5

O 1.906132567 -2.451871596 0.9212763038
H 1.4699702411 -2.8006628079 0.1304446546
H 1.2496089643 -1.825787058 1.271616147
Cl 0.3840273329 0.2884395014 -1.7949995031
K 2.13731114 1.4056192409 0.455470968
5

O -0.3805397446 1.314747996 1.4440127416
H 0.3422375381 1.7153820595 0.9329560758
H 0.0317265324 0.5624750705 1.9077667943
Cl 0.3476758181 0.3126728283 -2.2976770076
K -1.9682186105 -0.0561216988 -0.5131999169
5

O 1.5965932826 -1.7021886921 -0.2744057369
H 2.5126903314 -1.4013910262 -0.1633733948
H 1.2412141384 -1.1334536069 -0.9905106118
Cl 0.3476758181 0.3126728283 -2.2976770076
K -1.9682186105 -0.0561216988 -0.5131999169
5

O 1.8381678787 1.9407246626 -0.240696062
H 2.0790881183 2.8061697425 -0.5799675278
H 1.3941835638 1.4715148064 -0.9940623221
Cl 0.3476758181 0.3126728283 -2.2976770076
K -1.9682186105 -0.0561216988 -0.5131999169
5

O 3.7076189524 -0.0432925654 0.5497264296
H 4.5939603221 0.1242493206 0.223723415
H 3.1746133643 0.730916008 0.2914223307
Cl 0.3476758181 0.3126728283 -2.2976770076
K -1.9682186105 -0.0561216988 -0.5131999169
5

O -0.7624207562 -0.4199639438 -1.4865806846
H -1.6048056624 -0.3558760478 -1.0134636044
H -0.5616812324 0.4858914404 -1.7954559035
Cl 0.5875203408 2.3734469483 -1.6376567868
K 1.6043717237 0.0194119173 -0.1672005063
5

O 0.5108403123 2.0974179597 1.3492507265
H 0.6964363894 2.8864522767 1.862487544
H 0.4112149254 2.3974890183 0.4081336028
Cl 0.5875203408 2.3734469483 -1.6376567868
K 1.6043717237 0.0194119173 -0.1672005063
5

O -1.0685187106 -2.9963328514 -0.2371281294
H -0.838892856 -2.5230091509 -1.0478327081
H -1.8705867712 -2.5314696653 0.0570228839
Cl 0.5875203408 2.3734469483 -1.6376567868
K 1.6043717237 0.0194119173 -0.1672005063
5

O 1.3931980349 1.1411610192 -1.59415765
H 0.6257802733 1.6997336887 -1.7975895243
H 1.0339944031 0.2446837535 -1.7391231173
Cl -1.5187649837 2.2144768956 -0.9196270331
K 0.8804544547 2.0132999764 0.9630005666
5

O 3.1898562982 -1.2472194611 -1.7802008651
H 3.2111555224 -0.292898657 -1.9181772816
H 2.3218491153 -1.5098210406 -2.1297915371
Cl -1.5187649837 2.2144768956 -0.9196270331
K 0.8804544547 2.0132999764 0.9630005666
5

O -1.1513432922 0.4996588832 -4.2890505828
H -1.5245933954 0.2993671835 -5.1485735247
H -0.8136678272 -0.3417794263 -3.9320665985
Cl 0.0471453781 -1.5064657102 -2.2298227724
K -0.5871764998 1.5116230095 -1.8668893674
5

O 2.3566792707 1.8615008296 -1.2527480267
H 2.9065297983 1.0659192896 -1.2001384425
H 2.3623486464 2.2212124083 -0.3524656461
Cl 0.541884401 -1.8811544131 -1.2544079123
K -0.1772643176 1.0425227642 -1.7409312368
5

O -1.7327504482 -1.7192085771 0.9078186498
H -1.1986635892 -2.1790144232 1.569136277
H -1.1466349977 -1.708000069 0.1251422992
Cl 0.541884401 -1.8811544131 -1.2544079123
K -0.1772643176 1.0425227642 -1.7409312368
5

O 2.5035024743 -1.2218529065 1.9481625975
H 2.1385557411 -0.3287465915 2.0487021365
H 2.6615714033 -1.3051129905 0.9915454168
Cl 0.0471453781 -1.5064657102 -2.2298227724
K -0.5871764998 1.5116230095 -1.8668893674
5

O 1.814127022 1.6792527203 -0.6147081094
H 1.7007210766 1.7439473886 0.3412461198
H 2.3038358038 0.851364008 -0.7478831328
Cl 0.0471453781 -1.5064657102 -2.2298227724
K -0.5871764998 1.5116230095 -1.8668893674
5

O 0.5451963874 -2.2857419685 1.5536880453
H 1.2800474146 -2.5328322524 0.9790459806
H -0.1961349074 -2.196272276 0.9237595426
Cl -1.195165261 -1.4992266198 -0.9442350383
K -0.5585240271 1.305119295 0.0723717364
5

O 1.2210253518 3.0251218805 -0.9622381117
H 1.6925860258 3.7751691889 -1.3257870824
H 1.8696676185 2.3050790279 -0.8459293444
Cl -1.195165261 -1.4992266198 -0.9442350383
K -0.5585240271 1.305119295 0.0723717364
5

O 1.8532592335 -1.9176472634 -1.120177309
H 2.170333935 -2.4167200189 -1.8760147774
H 0.8821585684 -1.8313778889 -1.2384577819
Cl -1.195165261 -1.4992266198 -0.9442350383
K -0.5585240271 1.305119295 0.0723717364
5

O -0.4969960865 -1.3618109907 2.4892100992
H -0.7933693712 -1.9295614296 3.2038052386
H -1.3002123357 -1.081561839 2.0021477133
Cl -2.3668149192 -0.2839934287 0.3452315717
K 0.5141071891 -1.361187729 -0.2104085027
5

O 0.3757959673 0.1540189159 -2.4349729144
H 0.6993655352 1.0353625805 -2.2035420569
H -0.5505631894 0.2923376877 -2.6978026186
Cl -2.3668149192 -0.2839934287 0.3452315717
K 0.5141071891 -1.361187729 -0.2104085027
5

O 0.702707128 1.2476507662 2.7223894017
H 0.0474549199 1.783390559 2.2515013299
H 0.2741577169 0.3872865625 2.8543773344
Cl -2.3668149192 -0.2839934287 0.3452315717
K 0.5141071891 -1.361187729 -0.2104085027
5

O 2.3551928099 0.6406876782 0.6145372282
H 2.2073826412 1.3766374847 0.0034693174
H 1.9038555952 0.9023299075 1.4446877021
Cl -2.3668149192 -0.2839934287 0.3452315717
K 0.5141071891 -1.361187729 -0.2104085027
5

O 0.5758475415 -0.7468516731 2.0965259182
H 0.9805598406 0.1322269796 2.0389850881
H -0.3751667995 -0.6030707427 2.2200531687
Cl -1.7347273987 -1.1185102331 -1.1764227934
K 0.9613494187 -1.9601502501 -0.2445425357
5

O -2.3154397513 1.7762937974 0.0533485463
H -2.441210851 1.3343986145 0.9045245356
H -2.2777982573 1.0243627249 -0.5653287741
Cl -1.7347273987 -1.1185102331 -1.1764227934
K 0.9613494187 -1.9601502501 -0.2445425357
5

O -0.9084181424 0.7660327243 -4.1074769304
H -1.2973385474 0.6647587858 -4.9771973877
H -0.6366085795 -0.1255189609 -3.8219711739
Cl -0.000740465 -1.5440977727 -2.2228871041
K -0.579061166 1.4564638926 -1.5270307329
5

O 0.9102050171 -2.5366550107 1.775696058
H 1.3121196134 -3.3825204738 1.9879473008
H 0.9149107322 -2.4740355519 0.7983910583
Cl 0.541884401 -1.8811544131 -1.2544079123
K -0.1772643176 1.0425227642 -1.7409312368
5

O -2.3764213596 2.523369224 0.1557137679
H -3.08101724 3.1729696386 0.1556276999
H -2.5606364601 1.9281846965 0.9143841605
Cl -0.000740465 -1.5440977727 -2.2228871041
K -0.579061166 1.4564638926 -1.5270307329
5

O 2.533572163 -1.4330729193 1.8972517351
H 2.2217899731 -0.5189134011 2.0024863738
H 2.6850132441 -1.5157229558 0.9397670962
Cl -0.000740465 -1.5440977727 -2.2228871041
K -0.579061166 1.4564638926 -1.5270307329
5

O 3.0316001013 -1.4339530157 -0.757950572
H 3.3842776606 -0.5634228438 -0.9752014596
H 3.0197793948 -1.4170677438 0.2132030139
Cl 1.9292209139 -0.499889611 2.1030578713
K 0.2967213722 -1.2339421557 -0.4151307811
5

O -0.9619381068 0.4277013289 1.5951206861
H -0.9717431425 1.3807536044 1.4037779082
H -0.1005347594 0.2202660588 2.0122894504
Cl 1.9292209139 -0.499889611 2.1030578713
K 0.2967213722 -1.2339421557 -0.4151307811
5

O -1.9805923772 -2.6809810835 -0.3677699838
H -2.3734192237 -3.5480217136 -0.4777959304
H -2.620176217 -2.1483868963 0.1376149763
Cl 1.9292209139 -0.499889611 2.1030578713
K 0.2967213722 -1.2339421557 -0.4151307811
5

O -0.0091611377 -0.7075994171 1.9415337328
H -0.9489829363 -0.6610970699 1.7223515032
H 0.3356962028 0.1768137113 1.7232609898
Cl 1.405194752 1.5113397056 0.162535316
K 1.3568280906 -1.3589726083 -0.2903539199
5

O -1.5549315788 1.9919110477 -0.4094903287
H -1.775868101 2.8426050149 -0.0246251665
H -0.577447826 1.9053208384 -0.2955526678
Cl 1.405194752 1.5113397056 0.162535316
K 1.3568280906 -1.3589726083 -0.2903539199
5

O 2.6198312369 -0.8833165808 -1.7997596522
H 3.0831297843 -0.9046992708 -2.6381053912
H 2.5312929241 0.0569999181 -1.5587138659
Cl 1.6003664271 1.6495118274 -0.2945334459
K 0.915420496 -1.3857209979 0.232553867
5

O -1.0981754944 -1.6964345812 -1.6892898784
H -1.1301952796 -2.1984759219 -2.5059393606
H -1.0184952205 -0.741160585 -1.9514199913
Cl 1.6003664271 1.6495118274 -0.2945334459
K 0.915420496 -1.3857209979 0.232553867
5

O 2.1504809293 -1.0118961196 -1.3235778368
H 2.1299004608 -0.1015558526 -1.6523020171
H 2.6960180372 -0.9661141676 -0.5228009385
Cl -1.2376919083 1.2736722266 -0.7492184004
K -0.3440892055 -1.6608390031 -0.4990115795
5

O -2.4294052513 -2.5196901542 -1.9737834262
H -2.6870730528 -3.1532674882 -2.6448925174
H -2.9687197533 -1.7183680759 -2.1359321475
Cl -1.2376919083 1.2736722266 -0.7492184004
K -0.3440892055 -1.6608390031 -0.4990115795
5

O -0.4656092784 0.0317262928 3.7498377892
H -0.1050993223 0.231692777 4.6156197989
H -0.4288838092 0.8607245787 3.240815276
Cl -1.2376919083 1.2736722266 -0.7492184004
K -0.3440892055 -1.6608390031 -0.4990115795
5

O -0.1115612282 0.3148790892 1.8454804276
H 0.2214431781 1.1940609195 1.6040031737
H -1.0793293705 0.4027151353 1.7733992523
Cl -2.9326533365 0.5138482585 0.5025865518
K -0.615366558 -1.4367277816 -0.3423707743
5

O -2.9955118518 -2.5653217503 0.1511750496
H -3.7508173154 -3.1317963295 0.3145638817
H -3.2947357082 -1.6512955963 0.3191250474
Cl -2.9326533365 0.5138482585 0.5025865518
K -0.615366558 -1.4367277816 -0.3423707743
5

O 3.0243925272 -0.2005102321 -1.8534985615
H 3.7210207532 -0.4119267907 -2.4782103155
H 2.7958740899 -1.0295951242 -1.3875187548
Cl -2.9326533365 0.5138482585 0.5025865518
K -0.615366558 -1.4367277816 -0.3423707743
5

O 0.2221076264 0.2770444599 -2.2194806626
H 1.1812852108 0.3795138101 -2.2784212031
H -0.1572357085 1.1474786712 -2.0294704232
Cl -2.9326533365 0.5138482585 0.5025865518
K -0.615366558 -1.4367277816 -0.3423707743
5

O -2.7709429856 1.2467466707 -0.5366985015
H -2.3866706876 1.5613524326 0.2935816085
H -2.0177988343 1.2191389407 -1.1502958475
Cl 0.1637985543 0.6513491208 -1.7144602005
K -0.8534092395 -1.1099783069 0.5579059686
5

O 3.0925980849 0.5481017825 1.260350206
H 2.5337100249 1.3227789109 1.1048082295
H 3.333541817 0.2461114623 0.3725470833
Cl 0.1637985543 0.6513491208 -1.7144602005
K -0.8534092395 -1.1099783069 0.5579059686
5

O -2.6232204979 -0.1615184763 0.0755734435
H -2.5219645662 0.7107517884 -0.3275920552
H -3.5717693628 -0.3411175201 0.130085194
Cl 2.6783196867 -1.2017709366 -0.9445016318
K 0.0108408359 -0.5849380521 -0.0761392096
5

O -1.1016711995 1.9665466484 -0.9849278172
H -0.9930476032 2.523416792 -1.7576012302
H -0.4117474098 2.2299587432 -0.3455276052
Cl 2.6783196867 -1.2017709366 -0.9445016318
K 0.0108408359 -0.5849380521 -0.0761392096
5

O -5.4281038987 -0.7870576096 0.156962276
H -5.8927999798 -0.9177617936 0.986994134
H -5.7396155467 -1.481193762 -0.4289687741
Cl 2.6783196867 -1.2017709366 -0.9445016318
K 0.0108408359 -0.5849380521 -0.0761392096
5

O -1.8470031345 1.2388853287 -2.8769879738
H -2.6689712194 1.3450896198 -3.3592167531
H -1.8193013354 0.3145662498 -2.5781083135
Cl -0.830216403 -1.2285153686 -1.2276285207
K 0.2102996612 1.7832669505 -1.2182265241
5

O -1.2700489895 -3.5086715528 1.1469908628
H -0.5600315104 -3.1476279535 1.6917730547
H -1.209874011 -3.0136172939 0.3146475405
Cl -0.830216403 -1.2285153686 -1.2276285207
K 0.2102996612 1.7832669505 -1.2182265241
5

O 1.9760706701 -1.8401608973 -0.211648013
H 2.3599928264 -2.6810379161 -0.4704836248
H 1.1275016086 -1.7545808431 -0.7005042785
Cl -0.830216403 -1.2285153686 -1.2276285207
K 0.2102996612 1.7832669505 -1.2182265241
5

O -1.4998654885 -0.6278296469 2.946417948
H -2.3690496871 -0.4907391102 3.3292466671
H -1.6693027822 -1.0158423417 2.0574039186
Cl -1.953293384 -1.5917027521 0.0734952967
K 0.7938285623 -1.4916797102 -1.0366640312
5

O 1.8881673412 1.2929531635 -0.4242031854
H 2.3312416978 0.434352523 -0.4206047037
H 1.7101555316 1.5164108711 0.5104349579
Cl 0.0477589041 -1.6509681997 -2.4025050244
K -0.1749653129 1.3714921973 -2.0928847585
5

O -0.7945568051 -2.6166000062 0.4719432741
H 0.0661719188 -2.8028241372 0.8803831456
H -0.5913497645 -2.4327425079 -0.4668947501
Cl 0.0477589041 -1.6509681997 -2.4025050244
K -0.1749653129 1.3714921973 -2.0928847585
5

O 2.6380439406 -1.5161154238 -0.805686696
H 3.3741892997 -1.7919575452 -1.3569006293
H 1.8306546795 -1.6015505601 -1.3712608396
Cl 0.0477589041 -1.6509681997 -2.4025050244
K -0.1749653129 1.3714921973 -2.0928847585
5

O 0.6208254268 -0.6425240683 3.207148145
H -0.2878145877 -0.7045738288 2.8886812271
H 1.1044516985 -1.3356330294 2.731461031
Cl 0.0477589041 -1.6509681997 -2.4025050244
K -0.1749653129 1.3714921973 -2.0928847585
5

O -0.0895537719 2.9291761619 -0.0138345619
H -0.9257484233 2.774265686 0.4492523443
H -0.170283994 2.382463651 -0.8100093739
Cl 0.3840273329 0.2884395014 -1.7949995031
K 2.13731114 1.4056192409 0.455470968
5

O 0.173267396 -0.2697959728 1.3406320352
H -0.6704685553 -0.3404372039 1.8165854066
H -0.066383923 -0.2028315961 0.3981505372
Cl 0.3840273329 0.2884395014 -1.7949995031
K 2.13731114 1.4056192409 0.455470968
5

O 3.8619848634 -0.5835504404 0.7694970545
H 4.7504212882 -0.9234404125 0.8811289945
H 3.2648012376 -1.3665522054 0.7701787055
Cl 0.3840273329 0.2884395014 -1.7949995031
K 2.13731114 1.4056192409 0.455470968
8

O -1.766231713 -0.2083935797 1.6103897494
H -1.6955787374 -0.4698603855 0.6743429255
H -2.4908405159 -0.7527075157 1.9733150503
O 2.6004232738 2.8538794921 -1.8700163328
H 3.3080698787 3.4392082266 -2.1415103217
H 2.9699377009 2.2401536402 -1.2119662398
Cl -0.830216403 -1.2285153686 -1.2276285207
K 0.2102996612 1.7832669505 -1.2182265241
8

O -1.766231713 -0.2083935797 1.6103897494
H -1.6955787374 -0.4698603855 0.6743429255
H -2.4908405159 -0.7527075157 1.9733150503
O 2.6866701303 0.8876018065 0.0166530898
H 2.6745435413 -0.069896919 -0.1391106028
H 2.613291127 0.994995987 0.9797053089
Cl -0.830216403 -1.2285153686 -1.2276285207
K 0.2102996612 1.7832669505 -1.2182265241
8

O -2.9456795671 -1.8178482334 -0.1815036598
H -2.8346808062 -1.7450986073 0.7748860426
H -3.3345256925 -0.97147759 -0.453785384
O -1.4507477618 -1.0985814877 2.235138013
H -0.5670329722 -1.2324992562 2.5947442837
H -1.5243655445 -0.137838096 2.0964479473
Cl -0.5037513423 1.2600633969 -1.4576713219
K -0.2171554302 -1.5715093666 -0.3659845123
8

O 2.2404765343 2.1454676804 -0.4360805874
H 2.5244042157 2.9224134239 -0.9238480231
H 1.3781806921 1.8844226755 -0.8362969305
O 2.2273215943 -2.2201789754 -1.3609134952
H 2.6061771062 -2.5425604162 -2.1802731037
H 2.8512695426 -1.5548384689 -1.0201752429
Cl -0.5037513423 1.2600633969 -1.4576713219
K -0.2171554302 -1.5715093666 -0.3659845123
8

O 3.6983781422 -0.1926203304 -0.105301153
H 4.6429654104 -0.0342802415 -0.0558074673
H 3.2747370034 0.6761936221 -0.260950573
O -1.4507477618 -1.0985814877 2.235138013
H -0.5670329722 -1.2324992562 2.5947442837
H -1.5243655445 -0.137838096 2.0964479473
Cl -0.5037513423 1.2600633969 -1.4576713219
K -0.2171554302 -1.5715093666 -0.3659845123
8

O 3.6983781422 -0.1926203304 -0.105301153
H 4.6429654104 -0.0342802415 -0.0558074673
H 3.2747370034 0.6761936221 -0.260950573
O -3.5869731563 0.8838411143 -0.9255807517
H -4.2112808684 1.162861631 -1.5989242282
H -2.7017507534 1.0772442171 -1.2852829164
Cl -0.5037513423 1.2600633969 -1.4576713219
K -0.2171554302 -1.5715093666 -0.3659845123
8

O 2.0310801436 0.548159363 0.5073137608
H 2.0545333167 1.3326866102 -0.0665972478
H 1.4776858656 0.8026567048 1.2668947943
O 0.1971966451 0.5988834892 -2.635697456
H 0.7097096886 1.3839867313 -2.3937312743
H -0.7158689134 0.8231096597 -2.3960361352
Cl -1.953293384 -1.5917027521 0.0734952967
K 0.7938285623 -1.4916797102 -1.0366640312
8

O 3.2924047812 -1.7928995954 -0.0637648668
H 4.190517425 -2.0475531748 0.1498409096
H 3.1453585608 -0.9082752565 0.3161404675
O 0.1971966451 0.5988834892 -2.635697456
H 0.7097096886 1.3839867313 -2.3937312743
H -0.7158689134 0.8231096597 -2.3960361352
Cl -1.953293384 -1.5917027521 0.0734952967
K 0.7938285623 -1.4916797102 -1.0366640312
8

O 3.2924047812 -1.7928995954 -0.0637648668
H 4.190517425 -2.0475531748 0.1498409096
H 3.1453585608 -0.9082752565 0.3161404675
O -0.7446941192 2.906666968 0.2248112814
H -0.5524579275 2.4579143281 1.0641053955
H -1.3972397837 2.3485989728 -0.2342765716
Cl -1.953293384 -1.5917027521 0.0734952967
K 0.7938285623 -1.4916797102 -1.0366640312
8

O 0.1865696881 1.3889929267 2.472916655
H 0.4737469965 1.7700409192 3.3053796569
H -0.4528610686 0.6686572219 2.7030615417
O 0.1971966451 0.5988834892 -2.635697456
H 0.7097096886 1.3839867313 -2.3937312743
H -0.7158689134 0.8231096597 -2.3960361352
Cl -1.953293384 -1.5917027521 0.0734952967
K 0.7938285623 -1.4916797102 -1.0366640312
8

O -3.2793178121 1.299903358 1.2595239552
H -3.8649042401 1.8267942943 1.8040209086
H -2.3690168781 1.6261458515 1.4130321686
O -0.5853606948 1.5941579097 1.2031337738
H -0.2164555941 1.6212032557 0.3037850203
H -0.0704323256 0.9066898555 1.6734043229
Cl 0.1551326811 0.8722100787 -1.8264360118
K -2.0689961269 -0.4257775303 -0.3442618074
8

O 3.1943253602 -0.4458385254 0.8782991713
H 4.114243486 -0.5798186784 1.1142391444
H 3.1389250261 0.4341815594 0.4361651809
O 2.8108053496 1.8396004706 -0.4908217477
H 2.5814933531 2.6630824981 -0.0536619864
H 2.029928688 1.6113547814 -1.0358122089
Cl 0.1551326811 0.8722100787 -1.8264360118
K -2.0689961269 -0.4257775303 -0.3442618074
8

O 1.5394553702 -1.8550097487 -0.9987466
H 2.2412145527 -1.5189658662 -0.4179102925
H 1.2013841694 -1.0575403641 -1.4494325884
O -3.2793178121 1.299903358 1.2595239552
H -3.8649042401 1.8267942943 1.8040209086
H -2.3690168781 1.6261458515 1.4130321686
Cl 0.1551326811 0.8722100787 -1.8264360118
K -2.0689961269 -0.4257775303 -0.3442618074
8

O 2.8108053496 1.8396004706 -0.4908217477
H 2.5814933531 2.6630824981 -0.0536619864
H 2.029928688 1.6113547814 -1.0358122089
O 1.5394553702 -1.8550097487 -0.9987466
H 2.2412145527 -1.5189658662 -0.4179102925
H 1.2013841694 -1.0575403641 -1.4494325884
Cl 0.1551326811 0.8722100787 -1.8264360118
K -2.0689961269 -0.4257775303 -0.3442618074
8

O -3.648056427 -0.0768790102 -2.2579428446
H -4.4525847547 0.1425160673 -1.7829616077
H -2.9531925708 0.4775245803 -1.855319336
O 2.4404722009 1.9830285842 1.0125482682
H 1.5849199586 2.1492310591 1.4396012281
H 2.2653405118 2.0746827035 0.0614844513
Cl -1.2376919083 1.2736722266 -0.7492184004
K -0.3440892055 -1.6608390031 -0.4990115795
8

O 0.7309399543 1.4198060987 1.8193697544
H -0.1596670475 1.1440628554 2.0821539113
H 0.6253133895 2.0236942086 1.0637504954
O -1.5007600943 -0.2916269831 2.3418858493
H -1.6868824749 -0.4818876441 3.2633772464
H -2.3506875228 -0.0106639255 1.9356115804
Cl -1.5645433924 0.4001732618 -1.3978019986
K 0.357320085 -1.1446554058 0.3926830481
8

O 1.6397466805 1.8166243716 -1.7285555323
H 1.7206000525 2.4359083389 -2.4570516597
H 0.6799361541 1.7277883466 -1.5452853141
O 0.7391378864 -1.771859095 1.9415867972
H 1.6497014023 -1.4450636025 1.8843097995
H 0.3258840129 -1.2535177622 2.6525677868
Cl -1.2376919083 1.2736722266 -0.7492184004
K -0.3440892055 -1.6608390031 -0.4990115795
8

O 3.0243925272 -0.2005102321 -1.8534985615
H 3.7210207532 -0.4119267907 -2.4782103155
H 2.7958740899 -1.0295951242 -1.3875187548
O -0.1115612282 0.3148790892 1.8454804276
H 0.2214431781 1.1940609195 1.6040031737
H -1.0793293705 0.4027151353 1.7733992523
Cl -2.9326533365 0.5138482585 0.5025865518
K -0.615366558 -1.4367277816 -0.3423707743
8

O 3.0243925272 -0.2005102321 -1.8534985615
H 3.7210207532 -0.4119267907 -2.4782103155
H 2.7958740899 -1.0295951242 -1.3875187548
O 3.2382757447 1.3821692555 0.5583344339
H 3.2784181438 1.008594827 -0.3340442378
H 2.4810473777 1.9865464255 0.5539338435
Cl -2.9326533365 0.5138482585 0.5025865518
K -0.615366558 -1.4367277816 -0.3423707743
8

O 2.4494543666 -0.879070174 1.9652207892
H 1.5566617171 -0.6148065771 2.2360938596
H 2.834039017 -0.0557249446 1.598230403
O 0.2221076264 0.2770444599 -2.2194806626
H 1.1812852108 0.3795138101 -2.2784212031
H -0.1572357085 1.1474786712 -2.0294704232
Cl -2.9326533365 0.5138482585 0.5025865518
K -0.615366558 -1.4367277816 -0.3423707743
8

O -2.0507261689 -1.077038191 -0.6696801395
H -2.2316239604 -1.5430713444 0.1578441543
H -2.1598810948 -0.1338472775 -0.4505500031
O 0.5875191076 -3.037480882 0.8002285023
H 1.1479333019 -2.3436634319 1.173244959
H -0.2469069898 -2.9569459162 1.2856281649
Cl 1.785842796 0.0242570667 0.8109642419
K 0.4494890701 -1.5279337756 -1.4931480167
8

O -0.8339806971 0.2919750202 2.5139163155
H -0.5320093736 0.9491297428 3.1515601971
H -0.0446784873 0.1453700195 1.9508109991
O 0.5875191076 -3.037480882 0.8002285023
H 1.1479333019 -2.3436634319 1.173244959
H -0.2469069898 -2.9569459162 1.2856281649
Cl 1.785842796 0.0242570667 0.8109642419
K 0.4494890701 -1.5279337756 -1.4931480167
8

O 0.5104731937 2.6718185852 -0.2530680068
H 0.68970397 3.2838748122 0.4686999689
H 1.0135330799 1.867104856 -0.0149135042
O -0.8339806971 0.2919750202 2.5139163155
H -0.5320093736 0.9491297428 3.1515601971
H -0.0446784873 0.1453700195 1.9508109991
Cl 1.785842796 0.0242570667 0.8109642419
K 0.4494890701 -1.5279337756 -1.4931480167
8

O 0.5875191076 -3.037480882 0.8002285023
H 1.1479333019 -2.3436634319 1.173244959
H -0.2469069898 -2.9569459162 1.2856281649
O 0.4262204222 -0.130071396 -3.7616745653
H 0.6642629052 -0.0200122085 -4.6830632477
H -0.0170886203 0.7003761026 -3.4921924806
Cl 1.785842796 0.0242570667 0.8109642419
K 0.4494890701 -1.5279337756 -1.4931480167
8

O -0.9671682798 1.7427949131 1.5992563857
H -0.9281863118 0.8306390558 1.9261319437
H -0.1326737133 1.8747075171 1.1141276953
O 2.5075210764 -0.1924830611 2.0498837938
H 3.0099504318 0.0604080151 2.8255448193
H 2.4486522944 0.6021682307 1.4882529933
Cl 1.6003664271 1.6495118274 -0.2945334459
K 0.915420496 -1.3857209979 0.232553867
8

O -2.9244949617 1.6853096843 -0.2170540833
H -3.5253991716 2.4319180221 -0.1796733326
H -2.2519838199 1.8153559803 0.498876646
O -1.0981754944 -1.6964345812 -1.6892898784
H -1.1301952796 -2.1984759219 -2.5059393606
H -1.0184952205 -0.741160585 -1.9514199913
Cl 1.6003664271 1.6495118274 -0.2945334459
K 0.915420496 -1.3857209979 0.232553867
8

O 1.2189478078 -1.6034152488 0.9041103599
H 1.3576770408 -2.1810222919 1.6571167057
H 0.4031042737 -1.9180247622 0.4568522928
O 2.9222169509 -0.6230235358 -1.1636161255
H 2.2869300734 -0.6842026586 -1.8942561222
H 2.5447355194 -1.1717397058 -0.4581464855
Cl -1.2885863799 -1.7982042164 -0.8143047837
K 0.2667077462 0.8854828599 -0.1575418012
8

O 0.5654446596 -0.3363683436 -2.7402132928
H 0.3806854099 -0.293194616 -3.6803334108
H -0.1020831261 -0.943082767 -2.3524314145
O 2.9222169509 -0.6230235358 -1.1636161255
H 2.2869300734 -0.6842026586 -1.8942561222
H 2.5447355194 -1.1717397058 -0.4581464855
Cl -1.2885863799 -1.7982042164 -0.8143047837
K 0.2667077462 0.8854828599 -0.1575418012
8

O 2.1660462202 -1.3181604821 -1.5625242222
H 2.9790946122 -1.6784920128 -1.9181580703
H 1.9629845375 -0.5182929305 -2.0936501513
O 0.2539500501 2.7447711472 -0.6154074538
H -0.1139931255 3.6257813491 -0.7154171975
H -0.4609451873 2.1196361605 -0.8721198243
Cl -1.5645433924 0.4001732618 -1.3978019986
K 0.357320085 -1.1446554058 0.3926830481
8

O -1.1222094553 1.0263501318 3.0322263804
H -1.3180992684 1.2151220583 3.9518312972
H -1.7508275364 0.3182095493 2.7446712798
O 2.817806549 2.36277635 -0.7030672838
H 3.4639007514 2.9993280316 -1.0122509397
H 3.303878625 1.7300365619 -0.1439115395
Cl -2.3643952246 -0.1433541781 -1.1240346792
K 0.2522658417 1.5140425482 -0.8870267326
8

O 3.78071406 0.2745397279 0.8804566958
H 4.6252492869 0.1613847475 1.3210508327
H 3.6712864892 -0.4997865917 0.2742961384
O 0.9994641973 0.2376811482 1.4472766983
H 1.9356651507 0.3442043131 1.6655193824
H 0.4527075847 0.5477922603 2.1907909776
Cl -2.3643952246 -0.1433541781 -1.1240346792
K 0.2522658417 1.5140425482 -0.8870267326
8

O 2.3566792707 1.8615008296 -1.2527480267
H 2.9065297983 1.0659192896 -1.2001384425
H 2.3623486464 2.2212124083 -0.3524656461
O -2.8624602065 1.2085479886 -1.3422058302
H -2.7844655415 1.8536402284 -0.6324965908
H -3.4129689829 0.4987416481 -0.9705502222
Cl 0.541884401 -1.8811544131 -1.2544079123
K -0.1772643176 1.0425227642 -1.7409312368
8

O 2.0045664814 2.3427267934 1.5660484009
H 2.4506260119 2.894498348 2.2113196776
H 2.220413445 1.4080374081 1.7960774172
O 2.3566792707 1.8615008296 -1.2527480267
H 2.9065297983 1.0659192896 -1.2001384425
H 2.3623486464 2.2212124083 -0.3524656461
Cl 0.541884401 -1.8811544131 -1.2544079123
K -0.1772643176 1.0425227642 -1.7409312368
8

O 2.0045664814 2.3427267934 1.5660484009
H 2.4506260119 2.894498348 2.2113196776
H 2.220413445 1.4080374081 1.7960774172
O -0.6651113337 2.318887855 0.5853979694
H 0.1692700892 2.4634654301 1.0580520955
H -1.2663918258 1.8936813958 1.2206933831
Cl 0.541884401 -1.8811544131 -1.2544079123
K -0.1772643176 1.0425227642 -1.7409312368
8

O 0.5457366882 -1.9927916183 0.0370334457
H -0.0574089688 -2.0078388711 0.7937020774
H -0.0270453297 -1.6664183537 -0.681032609
O -1.0959041356 1.7553626361 1.2658178388
H -1.3526139214 1.03608949 1.8560085503
H -1.5710689526 1.5306273611 0.4489900097
Cl -1.4641521649 -0.0197404667 -1.3970256236
K 1.0684152578 1.0001531946 -0.1957308582
8

O -1.8114288094 -1.1263830246 1.4789396491
H -2.603935973 -1.6171046554 1.7079017685
H -1.9277013794 -0.8442414741 0.5459079791
O -1.0959041356 1.7553626361 1.2658178388
H -1.3526139214 1.03608949 1.8560085503
H -1.5710689526 1.5306273611 0.4489900097
Cl -1.4641521649 -0.0197404667 -1.3970256236
K 1.0684152578 1.0001531946 -0.1957308582
8

O 0.5457366882 -1.9927916183 0.0370334457
H -0.0574089688 -2.0078388711 0.7937020774
H -0.0270453297 -1.6664183537 -0.681032609
O 2.9798631972 -0.798691362 0.1781713195
H 3.8089112331 -1.267486573 0.2786263261
H 2.2676611858 -1.467718021 0.1605184338
Cl -1.4641521649 -0.0197404667 -1.3970256236
K 1.0684152578 1.0001531946 -0.1957308582
8

O -1.8114288094 -1.1263830246 1.4789396491
H -2.603935973 -1.6171046554 1.7079017685
H -1.9277013794 -0.8442414741 0.5459079791
O 0.5457366882 -1.9927916183 0.0370334457
H -0.0574089688 -2.0078388711 0.7937020774
H -0.0270453297 -1.6664183537 -0.681032609
Cl -1.4641521649 -0.0197404667 -1.3970256236
K 1.0684152578 1.0001531946 -0.1957308582
8

O 2.9798631972 -0.798691362 0.1781713195
H 3.8089112331 -1.267486573 0.2786263261
H 2.2676611858 -1.467718021 0.1605184338
O -1.0959041356 1.7553626361 1.2658178388
H -1.3526139214 1.03608949 1.8560085503
H -1.5710689526 1.5306273611 0.4489900097
Cl -1.4641521649 -0.0197404667 -1.3970256236
K 1.0684152578 1.0001531946 -0.1957308582
8

O -1.2945386683 1.4040836984 -1.737246478
H -1.6287374396 1.5149809888 -2.6298199023
H -1.5034287999 0.4752665544 -1.4786566981
O -2.1314221761 1.3386489674 1.1383284484
H -2.1429653559 1.8566271352 0.3243419572
H -2.2283940418 0.4217965049 0.8075529457
Cl -1.7535203127 -1.3254227906 -0.4388279822
K 0.9824414901 -1.0785047439 0.5351813886
8

O 0.3994237007 1.2183773611 1.9801772854
H 0.5376825995 1.6593166138 2.8203942268
H -0.5644516561 1.3190335512 1.7670507432
O -2.1314221761 1.3386489674 1.1383284484
H -2.1429653559 1.8566271352 0.3243419572
H -2.2283940418 0.4217965049 0.8075529457
Cl -1.7535203127 -1.3254227906 -0.4388279822
K 0.9824414901 -1.0785047439 0.5351813886
8

O -1.2945386683 1.4040836984 -1.737246478
H -1.6287374396 1.5149809888 -2.6298199023
H -1.5034287999 0.4752665544 -1.4786566981
O 3.221308191 -0.3757727988 -0.7504201835
H 4.0975404334 -0.2880146329 -1.1268695529
H 2.7408415174 0.4511396452 -0.9420921317
Cl -1.7535203127 -1.3254227906 -0.4388279822
K 0.9824414901 -1.0785047439 0.5351813886
8

O -3.6094282246 0.6393663113 0.9160178189
H -4.4319320019 0.1878983914 0.7153687178
H -3.0988121166 0.6381188878 0.080100376
O -1.5007600943 -0.2916269831 2.3418858493
H -1.6868824749 -0.4818876441 3.2633772464
H -2.3506875228 -0.0106639255 1.9356115804
Cl -1.5645433924 0.4001732618 -1.3978019986
K 0.357320085 -1.1446554058 0.3926830481
8

O 3.3325879101 1.5289759398 0.1367334062
H 3.7705550618 2.0102329647 -0.5683250411
H 3.2425176717 0.5989310009 -0.2024800493
O 0.848278611 1.9548201325 0.9046402027
H 0.8540772509 2.393771368 1.7570464908
H 1.7996902868 1.8885348399 0.617450829
Cl 2.6783196867 -1.2017709366 -0.9445016318
K 0.0108408359 -0.5849380521 -0.0761392096
8

O 3.221308191 -0.3757727988 -0.7504201835
H 4.0975404334 -0.2880146329 -1.1268695529
H 2.7408415174 0.4511396452 -0.9420921317
O 1.2928820916 1.5481566297 -0.7304677079
H 1.0849671282 1.8115287358 0.1769774793
H 0.4471089684 1.5898352657 -1.2164052276
Cl -1.7535203127 -1.3254227906 -0.4388279822
K 0.9824414901 -1.0785047439 0.5351813886
8

O -2.1314221761 1.3386489674 1.1383284484
H -2.1429653559 1.8566271352 0.3243419572
H -2.2283940418 0.4217965049 0.8075529457
O 1.2928820916 1.5481566297 -0.7304677079
H 1.0849671282 1.8115287358 0.1769774793
H 0.4471089684 1.5898352657 -1.2164052276
Cl -1.7535203127 -1.3254227906 -0.4388279822
K 0.9824414901 -1.0785047439 0.5351813886
8

O -2.9693355577 0.6634491469 -0.0872935087
H -3.7070407783 0.5072807452 0.5061351207
H -2.3845560403 -0.1184554621 0.0224221765
O -1.1262778447 2.6108437292 0.2708838585
H -1.3928457448 3.4459051588 -0.1156185084
H -1.8900914686 2.0000975087 0.154580797
Cl -0.8375287286 -1.4893181854 0.5315017847
K 0.8606451069 0.8912471197 0.6009652185
8

O 2.5943824145 0.0059764998 -1.1954060044
H 3.1776113286 0.2400789605 -1.9185496804
H 2.1899050751 -0.8575864757 -1.4413394876
O -1.1262778447 2.6108437292 0.2708838585
H -1.3928457448 3.4459051588 -0.1156185084
H -1.8900914686 2.0000975087 0.154580797
Cl -0.8375287286 -1.4893181854 0.5315017847
K 0.8606451069 0.8912471197 0.6009652185
8

O 1.8982771655 -3.0559917146 0.1906548441
H 2.5646941786 -3.2588956867 -0.4700704398
H 2.2186398499 -2.2530475005 0.636153392
O 1.4659653701 -0.2074233071 -1.761291467
H 1.9257045145 0.1211389283 -0.9776590738
H 1.0746856056 0.5624855038 -2.2020670065
Cl 1.9905808043 -0.1611928005 1.4950549064
K -0.3816338493 -1.5574340657 -0.3006925645
8

O 0.1158672372 2.2448765289 1.5803257108
H 0.3826602262 2.8564929591 2.2706039618
H 0.825100971 1.5623472061 1.5341025112
O 1.4659653701 -0.2074233071 -1.761291467
H 1.9257045145 0.1211389283 -0.9776590738
H 1.0746856056 0.5624855038 -2.2020670065
Cl 1.9905808043 -0.1611928005 1.4950549064
K -0.3816338493 -1.5574340657 -0.3006925645
8

O 0.5124504312 -1.6600584741 1.4796486493
H 0.0249789204 -0.9027407921 1.8322584822
H 1.4246266975 -1.3102555202 1.3370261333
O 1.3321000987 -0.4910020277 -1.8255973413
H 0.8115846136 -1.2986289537 -1.7362601276
H 2.0827620331 -0.6131579595 -1.2140157999
Cl 3.071922477 -0.1361857104 0.7801787108
K 0.8450685631 1.5714910164 -0.1117590756
8

O -0.8199789088 0.8894817169 2.0684210442
H -0.7800595743 1.0989053307 3.0042819523
H -1.7621320871 0.7569101898 1.8486629301
O -2.6359943009 -0.9751584872 -1.1928575159
H -3.1764559309 -1.303040901 -1.9147462694
H -1.9015092038 -1.6259727264 -1.0700982069
Cl 3.071922477 -0.1361857104 0.7801787108
K 0.8450685631 1.5714910164 -0.1117590756
8

O -0.8199789088 0.8894817169 2.0684210442
H -0.7800595743 1.0989053307 3.0042819523
H -1.7621320871 0.7569101898 1.8486629301
O -0.5134075407 -2.5409121425 -0.7559624358
H -0.4805762499 -3.4994658947 -0.7689776102
H -0.1163572902 -2.2522486973 0.1176657125
Cl 3.071922477 -0.1361857104 0.7801787108
K 0.8450685631 1.5714910164 -0.1117590756
8

O 2.8341242355 -0.0971789103 -0.7007097386
H 2.8291863179 0.5183764682 0.0443194981
H 2.2227981159 0.3089971119 -1.3429568482
O 0.637189141 0.8369228541 -2.1619823462
H 0.4452156179 1.6558627083 -1.6818660991
H -0.1633259361 0.2952080613 -2.0532171567
Cl -1.7347273987 -1.1185102331 -1.1764227934
K 0.9613494187 -1.9601502501 -0.2445425357
8

O -2.3154397513 1.7762937974 0.0533485463
H -2.441210851 1.3343986145 0.9045245356
H -2.2777982573 1.0243627249 -0.5653287741
O 0.637189141 0.8369228541 -2.1619823462
H 0.4452156179 1.6558627083 -1.6818660991
H -0.1633259361 0.2952080613 -2.0532171567
Cl -1.7347273987 -1.1185102331 -1.1764227934
K 0.9613494187 -1.9601502501 -0.2445425357
8

O 3.3325879101 1.5289759398 0.1367334062
H 3.7705550618 2.0102329647 -0.5683250411
H 3.2425176717 0.5989310009 -0.2024800493
O -2.6232204979 -0.1615184763 0.0755734435
H -2.5219645662 0.7107517884 -0.3275920552
H -3.5717693628 -0.3411175201 0.130085194
Cl 2.6783196867 -1.2017709366 -0.9445016318
K 0.0108408359 -0.5849380521 -0.0761392096
8

O 1.8856660899 1.7251940699 1.4326749886
H 2.2953883323 2.3294313909 2.0551708813
H 1.2678383649 2.2587335418 0.8919654603
O 2.8341242355 -0.0971789103 -0.7007097386
H 2.8291863179 0.5183764682 0.0443194981
H 2.2227981159 0.3089971119 -1.3429568482
Cl -1.7347273987 -1.1185102331 -1.1764227934
K 0.9613494187 -1.9601502501 -0.2445425357
8

O -2.6232204979 -0.1615184763 0.0755734435
H -2.5219645662 0.7107517884 -0.3275920552
H -3.5717693628 -0.3411175201 0.130085194
O -5.4281038987 -0.7870576096 0.156962276
H -5.8927999798 -0.9177617936 0.986994134
H -5.7396155467 -1.481193762 -0.4289687741
Cl 2.6783196867 -1.2017709366 -0.9445016318
K 0.0108408359 -0.5849380521 -0.0761392096
8

O -1.766231713 -0.2083935797 1.6103897494
H -1.6955787374 -0.4698603855 0.6743429255
H -2.4908405159 -0.7527075157 1.9733150503
O -1.8470031345 1.2388853287 -2.8769879738
H -2.6689712194 1.3450896198 -3.3592167531
H -1.8193013354 0.3145662498 -2.5781083135
Cl -0.830216403 -1.2285153686 -1.2276285207
K 0.2102996612 1.7832669505 -1.2182265241
8

O -1.766231713 -0.2083935797 1.6103897494
H -1.6955787374 -0.4698603855 0.6743429255
H -2.4908405159 -0.7527075157 1.9733150503
O -0.3492115953 2.2136527706 1.3976422875
H 0.407338659 2.0328479478 1.972184827
H -1.0042229428 1.5400114219 1.6410266332
Cl -0.830216403 -1.2285153686 -1.2276285207
K 0.2102996612 1.7832669505 -1.2182265241
8

O 2.6004232738 2.8538794921 -1.8700163328
H 3.3080698787 3.4392082266 -2.1415103217
H 2.9699377009 2.2401536402 -1.2119662398
O -1.8470031345 1.2388853287 -2.8769879738
H -2.6689712194 1.3450896198 -3.3592167531
H -1.8193013354 0.3145662498 -2.5781083135
Cl -0.830216403 -1.2285153686 -1.2276285207
K 0.2102996612 1.7832669505 -1.2182265241
