2

K -0.7000000000000003 0.0 0.0
F 2.8918046630000003 0.0 0.0
2

K -2.000000000000001 0.0 0.0
F 4.191804663000001 0.0 0.0
2

K 0.10000000000000019 0.0 0.0
F 2.091804663 0.0 0.0
2

K -2.3500000000000005 0.0 0.0
F 4.541804663000001 0.0 0.0
2

K -0.9999999999999999 0.0 0.0
F 3.191804663 0.0 0.0
2

K -1.7499999999999998 0.0 0.0
F 3.941804663 0.0 0.0
2

K -0.9999999999999999 0.0 0.0
F 3.191804663 0.0 0.0
2

K -2.1499999999999995 0.0 0.0
F 4.341804663 0.0 0.0
2

K -0.35000000000000014 0.0 0.0
F 2.541804663 0.0 0.0
2

K -2.2 0.0 0.0
F 4.391804663 0.0 0.0
2

K -2.1000000000000005 0.0 0.0
F 4.291804663000001 0.0 0.0
2

K -0.30000000000000004 0.0 0.0
F 2.4918046630000004 0.0 0.0
2

K -0.24999999999999997 0.0 0.0
F 2.441804663 0.0 0.0
2

K -1.3000000000000005 0.0 0.0
F 3.4918046630000004 0.0 0.0
2

K -0.20000000000000037 0.0 0.0
F 2.3918046630000003 0.0 0.0
2

K -0.39999999999999974 0.0 0.0
F 2.591804663 0.0 0.0
2

K -1.2499999999999998 0.0 0.0
F 3.441804663 0.0 0.0
2

K -2.1000000000000005 0.0 0.0
F 4.291804663000001 0.0 0.0
2

K -1.7999999999999998 0.0 0.0
F 3.991804663 0.0 0.0
2

K -1.4000000000000001 0.0 0.0
F 3.5918046630000005 0.0 0.0
2

K 0.10000000000000019 0.0 0.0
F 2.091804663 0.0 0.0
2

K -0.6000000000000001 0.0 0.0
F 2.791804663 0.0 0.0
2

K -0.9000000000000002 0.0 0.0
F 3.0918046630000005 0.0 0.0
2

K 0.10000000000000019 0.0 0.0
F 2.091804663 0.0 0.0
2

K -0.6499999999999997 0.0 0.0
F 2.841804663 0.0 0.0
2

K -1.6500000000000001 0.0 0.0
F 3.841804663 0.0 0.0
2

K -2.05 0.0 0.0
F 4.241804663 0.0 0.0
2

K -0.30000000000000004 0.0 0.0
F 2.4918046630000004 0.0 0.0
2

K -0.6499999999999997 0.0 0.0
F 2.841804663 0.0 0.0
2

K -1.5999999999999996 0.0 0.0
F 3.7918046629999997 0.0 0.0
2

K 0.24999999999999997 0.0 0.0
F 1.941804663 0.0 0.0
2

K -2.600000000000001 0.0 0.0
F 4.791804663000001 0.0 0.0
2

K -0.24999999999999997 0.0 0.0
F 2.441804663 0.0 0.0
2

K -2.55 0.0 0.0
F 4.741804663 0.0 0.0
2

K -2.4500000000000006 0.0 0.0
F 4.641804663 0.0 0.0
2

K -2.55 0.0 0.0
F 4.741804663 0.0 0.0
2

K -1.2000000000000002 0.0 0.0
F 3.3918046630000003 0.0 0.0
2

K -0.1499999999999998 0.0 0.0
F 2.341804663 0.0 0.0
2

K -1.2499999999999998 0.0 0.0
F 3.441804663 0.0 0.0
2

K -1.3000000000000005 0.0 0.0
F 3.4918046630000004 0.0 0.0
2

K -0.8500000000000001 0.0 0.0
F 3.041804663 0.0 0.0
2

K -1.5999999999999996 0.0 0.0
F 3.7918046629999997 0.0 0.0
2

K -0.7000000000000003 0.0 0.0
F 2.8918046630000003 0.0 0.0
2

K -2.1499999999999995 0.0 0.0
F 4.341804663 0.0 0.0
2

K -1.9500000000000002 0.0 0.0
F 4.141804663 0.0 0.0
2

K -0.10000000000000019 0.0 0.0
F 2.291804663 0.0 0.0
2

K -1.2499999999999998 0.0 0.0
F 3.441804663 0.0 0.0
2

K -1.9500000000000002 0.0 0.0
F 4.141804663 0.0 0.0
2

K 0.0 0.0 0.0
F 2.191804663 0.0 0.0
2

K 0.10000000000000019 0.0 0.0
F 2.091804663 0.0 0.0
5

O -0.6215666392 -2.088401762 1.4571868054
H -0.8402869705 -1.2771960189 1.94198822
H -1.3772267091 -2.2245610807 0.8611002341
F 0.6861513384 0.0735591317 -1.3602958743
K 1.6654177674 -1.6694813562 0.147108889
5

O 2.0858527982 3.0747115069 0.759620065
H 2.1866216043 3.9789380483 0.4560322617
H 1.1644372617 2.8226308715 0.5563972103
F 0.6861513384 0.0735591317 -1.3602958743
K 1.6654177674 -1.6694813562 0.147108889
5

O -2.7528210629 0.1186938687 0.2457571092
H -2.7562881496 0.1636326705 1.2079972119
H -2.4186263198 0.97935909 -0.0569210798
F 0.7537657009 -1.0637171673 -2.0064904352
K -0.4673240473 -1.3624828951 0.1601405086
5

O -2.7244474062 1.1949017903 -0.5228812085
H -3.5263031353 1.7162625862 -0.5908710937
H -2.9155991305 0.45252246 0.0967857822
F -0.2221240317 -1.020305945 1.2430904445
K 1.4679136205 0.000647945 -0.9276589985
5

O -2.7244474062 1.1949017903 -0.5228812085
H -3.5263031353 1.7162625862 -0.5908710937
H -2.9155991305 0.45252246 0.0967857822
F -0.2221240317 -1.020305945 1.2430904445
K 1.4679136205 0.000647945 -0.9276589985
5

O 1.3336452928 -2.0986701799 1.1395053921
H 1.5121378271 -2.9480985327 1.5457119438
H 0.3282720122 -1.9961718256 1.0894227715
F -1.111648218 -1.6240997471 0.9751133205
K -1.0447893198 0.8167781342 1.4440076518
5

O 1.0579194188 2.324602908 -0.2172266782
H 1.0919127337 3.1787308494 -0.6473392733
H 0.7663310264 1.6681579466 -0.8967631601
F 0.2565184187 0.1977978826 -1.4152795212
K 0.5313598399 0.1449665786 1.2071346593
5

O 1.7196290716 0.7658643012 1.6457987505
H 2.3103051995 1.4873857133 1.4109585044
H 1.867633736 0.1131042238 0.9363095591
F -1.2869392569 -1.3245305423 0.3726263083
K -0.9388097012 0.9230365704 1.3969811103
5

O -0.7633499157 0.2536754805 -1.9294023324
H -1.0595792242 -0.6571488677 -1.7960116951
H -1.4899707782 0.8354290394 -1.6387220908
F -2.0279932993 0.534199175 1.6160680819
K 0.2815274215 0.952263747 0.5884392412
5

O 2.3051114403 -2.0400852355 -0.7619600579
H 1.4128250678 -2.3679357029 -0.9304867243
H 2.385442805 -1.1897878797 -1.2788404913
F 2.4162535021 0.3166076337 -1.7648983576
K 2.6982798032 1.2947516486 0.4324405883
5

O -3.1722522132 -1.2871475691 -0.5172689881
H -2.3108040547 -1.7222758274 -0.5810017482
H -3.12352027 -0.5102057498 -1.1111347355
F 2.3384640018 0.4430896628 -1.7388237534
K 2.5158133024 1.3884342237 0.4960127703
5

O -1.269891895 2.1946106724 2.0377730574
H -1.2352696881 2.9726890466 2.5969817702
H -1.2146842385 2.5053669394 1.1121019316
F 0.5994097069 -1.0794455711 -2.1422470535
K -0.5849671443 -1.5955514148 -0.0005544587
5

O 0.2944689282 -2.0687297282 1.7799379246
H 0.3745746402 -2.9902587674 2.0252806392
H 0.211321258 -2.0329078099 0.7942845347
F -0.0479784945 -1.3146461906 -0.6452201923
K -0.4278706182 0.4403383557 1.2833642232
5

O 0.8208168974 1.4996291519 -1.9573777925
H 1.6208786446 1.6228814915 -1.4326112805
H 0.7774693034 0.5150245703 -2.1060981258
F 0.7537657009 -1.0637171673 -2.0064904352
K -0.4673240473 -1.3624828951 0.1601405086
5

O 2.2462670306 -2.0697504728 -0.6351627211
H 2.8503538754 -2.704556288 -1.0223662471
H 1.6594608078 -1.7021453512 -1.3908244213
F 0.5994097069 -1.0794455711 -2.1422470535
K -0.5849671443 -1.5955514148 -0.0005544587
5

O 0.2944689282 -2.0687297282 1.7799379246
H 0.3745746402 -2.9902587674 2.0252806392
H 0.211321258 -2.0329078099 0.7942845347
F -0.0479784945 -1.3146461906 -0.6452201923
K -0.4278706182 0.4403383557 1.2833642232
5

O 1.4863241799 -1.5358263526 -1.6804159004
H 1.2745967544 -2.0986386642 -2.4271823301
H 0.9579741164 -0.7179633097 -1.8011475543
F -0.0578082708 0.5683602057 -1.3139708607
K 0.3424568422 -1.1595604992 0.7940301504
5

O -0.6770649594 -2.1182382306 -0.7312549791
H -0.7404927184 -1.8387099649 0.1949854738
H -1.5938410817 -2.2318628113 -1.0500985485
F 2.4484774653 0.3007686109 -1.7862869062
K 2.6887017102 1.257604456 0.4195587786
5

O -3.12533571 0.4883172712 0.0288644584
H -3.8529371928 0.8299830051 0.5506116946
H -2.5296731079 1.2490462956 -0.1368818744
F 0.546301901 -1.3304296331 -1.485539682
K -1.4327804096 -1.5766559829 -0.0506268385
5

O 2.2462670306 -2.0697504728 -0.6351627211
H 2.8503538754 -2.704556288 -1.0223662471
H 1.6594608078 -1.7021453512 -1.3908244213
F 0.5994097069 -1.0794455711 -2.1422470535
K -0.5849671443 -1.5955514148 -0.0005544587
5

O -0.9383436504 1.5368683163 2.2546692979
H -1.6044378402 1.7079734096 2.9214871942
H -1.2626282255 1.9599464581 1.4269067856
F -0.2626352305 0.4295043419 -1.2657220859
K 0.5836018644 -0.3199872006 1.0747759533
5

O -0.9180471386 0.8367355666 -2.5550701664
H -1.4120328629 0.9143114931 -3.3725951667
H -1.1368227579 -0.0458210122 -2.1578781355
F -1.2020785001 -1.1868266055 -1.0513022644
K -0.8767812512 1.1039142765 0.2813396658
5

O 0.7669120476 1.2339980921 -1.7373689622
H 1.5722563223 1.3954790191 -1.2265318779
H 0.6803638425 0.2443531647 -1.7539388662
F 0.546301901 -1.3304296331 -1.485539682
K -1.4327804096 -1.5766559829 -0.0506268385
5

O -0.0474476493 -0.6237922074 -2.0971865687
H 0.0455826498 -0.7621227659 -3.0410525109
H 0.8172423765 -0.9101972516 -1.6765721044
F 0.4962074612 -0.9577439871 1.3824677671
K -1.5852508902 -1.1132887178 0.1152498607
5

O -0.2335929864 1.6346236353 0.8671733458
H -1.080477549 1.7471826497 0.410537193
H -0.2520625658 0.7111210403 1.1915023002
F -0.2221240317 -1.020305945 1.2430904445
K 1.4679136205 0.000647945 -0.9276589985
5

O -0.3252357248 1.8448770415 0.1701253232
H -1.1465095535 2.1415935231 -0.2562793408
H 0.0599322788 1.1608643998 -0.4522706588
F 0.6861513384 0.0735591317 -1.3602958743
K 1.6654177674 -1.6694813562 0.147108889
5

O 2.2703153957 0.5350099067 -0.810629898
H 2.9254275211 0.7527656254 -1.4732777729
H 1.3851426364 0.5803285023 -1.2434313384
F -0.2626352305 0.4295043419 -1.2657220859
K 0.5836018644 -0.3199872006 1.0747759533
5

O 1.1254901894 -2.1719502636 -0.9569275278
H 1.1139993657 -3.0898499245 -1.2351988093
H 0.1749940204 -1.8513624198 -1.0024943781
F -1.2020785001 -1.1868266055 -1.0513022644
K -0.8767812512 1.1039142765 0.2813396658
5

O 2.3356744146 1.5454834415 1.0172236555
H 2.7843314737 0.7376469054 1.301395003
H 1.4583535141 1.5138957392 1.4366003546
F -0.6993093241 1.2707556223 -1.0812432724
K 1.6834988087 1.3980310065 -1.5700019309
5

O -2.7244474062 1.1949017903 -0.5228812085
H -3.5263031353 1.7162625862 -0.5908710937
H -2.9155991305 0.45252246 0.0967857822
F -0.2221240317 -1.020305945 1.2430904445
K 1.4679136205 0.000647945 -0.9276589985
5

O -2.6141813243 1.034687242 -0.0107482558
H -3.4208398694 1.48086229 0.2499098361
H -2.8013691193 0.0733309399 0.0434038342
F 2.5660404239 0.671081834 -0.1588873102
K 0.0548366349 1.0284768386 -0.1055858966
5

O 1.591465835 0.5869335487 2.0107619855
H 2.1203882092 0.9855464274 1.3045797459
H 1.6856392246 -0.3707675737 1.8726545304
F -1.111648218 -1.6240997471 0.9751133205
K -1.0447893198 0.8167781342 1.4440076518
5

O 2.0351190142 -1.3594956087 -0.7001312547
H 2.7022993694 -0.6556533337 -0.6427105074
H 1.5675001326 -1.322226393 0.1693115359
F 0.4962074612 -0.9577439871 1.3824677671
K -1.5852508902 -1.1132887178 0.1152498607
5

O -0.4351528833 -0.5514538894 -1.8967660296
H -0.7439000192 -1.1775303901 -2.5573463037
H -0.8316582326 -0.8701163641 -1.0348898942
F -1.2869392569 -1.3245305423 0.3726263083
K -0.9388097012 0.9230365704 1.3969811103
5

O -1.9367065618 1.741670437 0.0199904013
H -1.9426097509 2.6963850592 -0.0645280924
H -1.2075325221 1.4144352714 -0.5647839299
F -0.0578082708 0.5683602057 -1.3139708607
K 0.3424568422 -1.1595604992 0.7940301504
5

O 1.0579194188 2.324602908 -0.2172266782
H 1.0919127337 3.1787308494 -0.6473392733
H 0.7663310264 1.6681579466 -0.8967631601
F 0.2565184187 0.1977978826 -1.4152795212
K 0.5313598399 0.1449665786 1.2071346593
5

O 1.8136874488 -1.5537337232 -0.3864038464
H 2.3905725864 -2.1071812769 -0.9122592756
H 1.3035613958 -0.9798707871 -1.0115599602
F 0.2565184187 0.1977978826 -1.4152795212
K 0.5313598399 0.1449665786 1.2071346593
5

O 2.3715644794 -1.4776238027 0.1758512958
H 3.0136825012 -2.1525541224 -0.0494245002
H 1.665762981 -1.4745320464 -0.5624607159
F 0.546301901 -1.3304296331 -1.485539682
K -1.4327804096 -1.5766559829 -0.0506268385
5

O 2.3749707698 -1.2805016412 1.2970569483
H 2.8613794724 -1.1773860991 2.1157213493
H 1.4216279708 -1.2650833772 1.5307757773
F -0.2221240317 -1.020305945 1.2430904445
K 1.4679136205 0.000647945 -0.9276589985
5

O -3.1722522132 -1.2871475691 -0.5172689881
H -2.3108040547 -1.7222758274 -0.5810017482
H -3.12352027 -0.5102057498 -1.1111347355
F 2.3384640018 0.4430896628 -1.7388237534
K 2.5158133024 1.3884342237 0.4960127703
5

O -1.2953514071 -1.8894011596 -1.661400619
H -2.2317803182 -1.7963278402 -1.8437842257
H -0.9301757762 -0.9658873414 -1.6225314564
F -0.2626352305 0.4295043419 -1.2657220859
K 0.5836018644 -0.3199872006 1.0747759533
5

O -2.4536400684 -1.890899774 1.0638881205
H -1.5900284829 -2.1590080437 1.4006844763
H -2.2891701034 -1.6469647839 0.1329645891
F -0.6993093241 1.2707556223 -1.0812432724
K 1.6834988087 1.3980310065 -1.5700019309
5

O -0.6770649594 -2.1182382306 -0.7312549791
H -0.7404927184 -1.8387099649 0.1949854738
H -1.5938410817 -2.2318628113 -1.0500985485
F 2.4484774653 0.3007686109 -1.7862869062
K 2.6887017102 1.257604456 0.4195587786
5

O -0.2335929864 1.6346236353 0.8671733458
H -1.080477549 1.7471826497 0.410537193
H -0.2520625658 0.7111210403 1.1915023002
F -0.2221240317 -1.020305945 1.2430904445
K 1.4679136205 0.000647945 -0.9276589985
5

O -0.2335929864 1.6346236353 0.8671733458
H -1.080477549 1.7471826497 0.410537193
H -0.2520625658 0.7111210403 1.1915023002
F -0.2221240317 -1.020305945 1.2430904445
K 1.4679136205 0.000647945 -0.9276589985
5

O 1.3336452928 -2.0986701799 1.1395053921
H 1.5121378271 -2.9480985327 1.5457119438
H 0.3282720122 -1.9961718256 1.0894227715
F -1.111648218 -1.6240997471 0.9751133205
K -1.0447893198 0.8167781342 1.4440076518
5

O -0.0867751654 0.4018846737 -1.8496151715
H -0.2826037108 -0.5146815876 -1.5765102075
H 0.9004031703 0.4080389311 -2.013732328
F 2.4484774653 0.3007686109 -1.7862869062
K 2.6887017102 1.257604456 0.4195587786
5

O -1.2067293185 0.2355911069 1.8717256393
H -1.7337671198 0.2618496169 2.670703553
H -1.6764870583 -0.3684023143 1.2142319092
F -1.8932742201 -1.2426914449 -0.0035760115
K 0.6034023448 -0.8833195369 0.0028949473
5

O 1.0579194188 2.324602908 -0.2172266782
H 1.0919127337 3.1787308494 -0.6473392733
H 0.7663310264 1.6681579466 -0.8967631601
F 0.2565184187 0.1977978826 -1.4152795212
K 0.5313598399 0.1449665786 1.2071346593
5

O -3.12533571 0.4883172712 0.0288644584
H -3.8529371928 0.8299830051 0.5506116946
H -2.5296731079 1.2490462956 -0.1368818744
F 0.546301901 -1.3304296331 -1.485539682
K -1.4327804096 -1.5766559829 -0.0506268385
8

O -1.2953514071 -1.8894011596 -1.661400619
H -2.2317803182 -1.7963278402 -1.8437842257
H -0.9301757762 -0.9658873414 -1.6225314564
O 2.2703153957 0.5350099067 -0.810629898
H 2.9254275211 0.7527656254 -1.4732777729
H 1.3851426364 0.5803285023 -1.2434313384
F -0.2626352305 0.4295043419 -1.2657220859
K 0.5836018644 -0.3199872006 1.0747759533
8

O -0.0474476493 -0.6237922074 -2.0971865687
H 0.0455826498 -0.7621227659 -3.0410525109
H 0.8172423765 -0.9101972516 -1.6765721044
O 2.0351190142 -1.3594956087 -0.7001312547
H 2.7022993694 -0.6556533337 -0.6427105074
H 1.5675001326 -1.322226393 0.1693115359
F 0.4962074612 -0.9577439871 1.3824677671
K -1.5852508902 -1.1132887178 0.1152498607
8

O -0.4351528833 -0.5514538894 -1.8967660296
H -0.7439000192 -1.1775303901 -2.5573463037
H -0.8316582326 -0.8701163641 -1.0348898942
O 2.9138463454 1.6926638853 -0.9709448142
H 3.5913126367 1.9378767833 -1.6040876956
H 2.8940795375 0.719082195 -0.9460692758
F -1.2869392569 -1.3245305423 0.3726263083
K -0.9388097012 0.9230365704 1.3969811103
8

O 1.3336452928 -2.0986701799 1.1395053921
H 1.5121378271 -2.9480985327 1.5457119438
H 0.3282720122 -1.9961718256 1.0894227715
O 1.591465835 0.5869335487 2.0107619855
H 2.1203882092 0.9855464274 1.3045797459
H 1.6856392246 -0.3707675737 1.8726545304
F -1.111648218 -1.6240997471 0.9751133205
K -1.0447893198 0.8167781342 1.4440076518
8

O -0.4351528833 -0.5514538894 -1.8967660296
H -0.7439000192 -1.1775303901 -2.5573463037
H -0.8316582326 -0.8701163641 -1.0348898942
O 0.0684239488 2.0626895136 -1.1458272412
H 1.0392200892 2.0864911241 -1.13647756
H -0.1700105392 1.2647252055 -1.6489178996
F -1.2869392569 -1.3245305423 0.3726263083
K -0.9388097012 0.9230365704 1.3969811103
8

O -0.0867751654 0.4018846737 -1.8496151715
H -0.2826037108 -0.5146815876 -1.5765102075
H 0.9004031703 0.4080389311 -2.013732328
O 0.0263823221 1.6120797629 0.5097878509
H -0.8236551306 2.0313225915 0.7152181027
H -0.0852376418 1.2327245387 -0.4051995593
F 2.4484774653 0.3007686109 -1.7862869062
K 2.6887017102 1.257604456 0.4195587786
8

O 3.1337800757 0.9380494798 -0.8014214859
H 2.9599069624 1.7185419934 -0.2491587003
H 2.2706452343 0.7298450065 -1.2156884347
O -0.6215666392 -2.088401762 1.4571868054
H -0.8402869705 -1.2771960189 1.94198822
H -1.3772267091 -2.2245610807 0.8611002341
F 0.6861513384 0.0735591317 -1.3602958743
K 1.6654177674 -1.6694813562 0.147108889
8

O 3.1337800757 0.9380494798 -0.8014214859
H 2.9599069624 1.7185419934 -0.2491587003
H 2.2706452343 0.7298450065 -1.2156884347
O -0.6215666392 -2.088401762 1.4571868054
H -0.8402869705 -1.2771960189 1.94198822
H -1.3772267091 -2.2245610807 0.8611002341
F 0.6861513384 0.0735591317 -1.3602958743
K 1.6654177674 -1.6694813562 0.147108889
8

O -1.6416953943 -0.588070655 1.8624665227
H -2.2944403178 -0.7241710816 2.5514500799
H -1.1203286885 0.2207646441 2.1139883114
O -2.0980455945 -0.2467139301 -0.9423110565
H -2.1821439121 -0.3304358881 0.0224974427
H -1.118705699 -0.1144340866 -1.0738062957
F 0.4455368728 0.0760876041 -0.9904746052
K 0.6185475153 -1.7415051692 0.7561579748
8

O 2.9564870348 0.7362177554 -0.4120971327
H 3.0088049828 1.7047473056 -0.5056753459
H 2.0937721894 0.4973890845 -0.8128323919
O 2.542796267 3.513874942 -0.5638431443
H 2.6736730626 3.9974491713 -1.3816977578
H 1.5791522118 3.3655058786 -0.4918983498
F 0.4455368728 0.0760876041 -0.9904746052
K 0.6185475153 -1.7415051692 0.7561579748
8

O -0.2439489468 -0.6178927595 -2.6856906323
H -0.4140483954 -0.6274957373 -3.6294000695
H -0.9238359236 -1.2098091471 -2.263494833
O 2.6543746853 1.3958996147 -0.5536210653
H 3.4714449 1.7754171968 -0.8817540338
H 2.6164104601 0.4577582163 -0.8770503875
F -1.111648218 -1.6240997471 0.9751133205
K -1.0447893198 0.8167781342 1.4440076518
8

O -1.6416953943 -0.588070655 1.8624665227
H -2.2944403178 -0.7241710816 2.5514500799
H -1.1203286885 0.2207646441 2.1139883114
O -2.0980455945 -0.2467139301 -0.9423110565
H -2.1821439121 -0.3304358881 0.0224974427
H -1.118705699 -0.1144340866 -1.0738062957
F 0.4455368728 0.0760876041 -0.9904746052
K 0.6185475153 -1.7415051692 0.7561579748
8

O 0.8030748212 -3.0151597991 0.5539052118
H 0.4917343444 -3.7049456835 -0.0406213439
H 0.0252444689 -2.4230397569 0.6329536581
O -1.6936061754 -3.3563314154 -1.3047147613
H -2.5121717628 -3.8534474093 -1.2654582008
H -1.7540009057 -2.6760383345 -0.6039748282
F -1.2869392569 -1.3245305423 0.3726263083
K -0.9388097012 0.9230365704 1.3969811103
8

O 1.1824415895 1.4118786832 1.3685510807
H 1.2053636481 1.7917340471 2.2484664595
H 0.9194889798 0.4289396331 1.4725783593
O 2.0351190142 -1.3594956087 -0.7001312547
H 2.7022993694 -0.6556533337 -0.6427105074
H 1.5675001326 -1.322226393 0.1693115359
F 0.4962074612 -0.9577439871 1.3824677671
K -1.5852508902 -1.1132887178 0.1152498607
8

O 1.8007740505 -1.0083859219 -1.8373601538
H 1.1764107522 -0.3849631024 -2.2330103517
H 1.2259794901 -1.7431420428 -1.5707865106
O -2.2864059262 1.9514024111 -0.4245059962
H -3.0672744034 2.5008778693 -0.4963261034
H -2.372566625 1.4096768989 0.4176258665
F -2.0279932993 0.534199175 1.6160680819
K 0.2815274215 0.952263747 0.5884392412
8

O 0.719436388 0.999325904 1.8353202267
H 0.7566334096 1.4446162214 2.6824938156
H 0.1644759026 1.5636725993 1.2260930614
O 1.4417542221 -2.5958264048 0.0106206957
H 1.976331623 -3.3902298486 0.0087746288
H 2.0583215382 -1.8333611771 0.0115252044
F -0.716106645 1.968575745 0.0001264439
K -0.5122028386 -0.7794320269 0.0059923647
8

O -2.9381503843 -0.2889849659 0.8084404002
H -3.0500449286 0.4547084213 0.2028671638
H -2.066315876 -0.1376237083 1.206736664
O 2.3670597379 -0.8672810871 1.5976185498
H 3.0530768681 -0.2203128692 1.3813034756
H 1.5580064998 -0.3506715229 1.7395088215
F -0.2032258636 0.2922857945 1.3227137844
K -0.421367754 -0.4165856901 -1.3487419052
8

O -1.9367065618 1.741670437 0.0199904013
H -1.9426097509 2.6963850592 -0.0645280924
H -1.2075325221 1.4144352714 -0.5647839299
O -1.8332376319 -1.3976572388 -0.8936297444
H -2.688892267 -1.0335726414 -0.6549970369
H -1.3386792119 -0.6456847073 -1.274575047
F -0.0578082708 0.5683602057 -1.3139708607
K 0.3424568422 -1.1595604992 0.7940301504
8

O 1.8007740505 -1.0083859219 -1.8373601538
H 1.1764107522 -0.3849631024 -2.2330103517
H 1.2259794901 -1.7431420428 -1.5707865106
O -2.2864059262 1.9514024111 -0.4245059962
H -3.0672744034 2.5008778693 -0.4963261034
H -2.372566625 1.4096768989 0.4176258665
F -2.0279932993 0.534199175 1.6160680819
K 0.2815274215 0.952263747 0.5884392412
8

O 2.8454763397 0.2722804416 0.5622286836
H 3.7636102221 0.4283075941 0.7899769276
H 2.8025521412 -0.6164761896 0.1382769831
O -2.625449044 0.1926006619 0.2791487934
H -2.6320530647 0.5713770588 1.1651763697
H -2.332742812 0.9389909606 -0.2692852902
F 0.5994097069 -1.0794455711 -2.1422470535
K -0.5849671443 -1.5955514148 -0.0005544587
8

O -2.6721417548 -1.6762503444 0.2048651237
H -3.0777396859 -2.3207752124 -0.3774567153
H -1.7103978701 -1.8732752526 0.2085207815
O 1.5847065804 -0.3602520919 1.8749819699
H 2.1226698885 -0.4657351795 2.6599122033
H 2.1686520989 0.0250680224 1.1474483228
F 2.5660404239 0.671081834 -0.1588873102
K 0.0548366349 1.0284768386 -0.1055858966
8

O -1.9367065618 1.741670437 0.0199904013
H -1.9426097509 2.6963850592 -0.0645280924
H -1.2075325221 1.4144352714 -0.5647839299
O -1.4211686758 0.2490290623 2.2567019919
H -1.5752649454 0.6873806182 3.0945596302
H -1.6803563564 0.8908782626 1.5616607174
F -0.0578082708 0.5683602057 -1.3139708607
K 0.3424568422 -1.1595604992 0.7940301504
8

O -0.5306575222 -2.4793814154 -1.0470008645
H -0.9378981449 -3.3265543821 -1.2355393204
H -0.6939246261 -2.2865030202 -0.0939617871
O -2.2864059262 1.9514024111 -0.4245059962
H -3.0672744034 2.5008778693 -0.4963261034
H -2.372566625 1.4096768989 0.4176258665
F -2.0279932993 0.534199175 1.6160680819
K 0.2815274215 0.952263747 0.5884392412
8

O 3.1337800757 0.9380494798 -0.8014214859
H 2.9599069624 1.7185419934 -0.2491587003
H 2.2706452343 0.7298450065 -1.2156884347
O -0.3252357248 1.8448770415 0.1701253232
H -1.1465095535 2.1415935231 -0.2562793408
H 0.0599322788 1.1608643998 -0.4522706588
F 0.6861513384 0.0735591317 -1.3602958743
K 1.6654177674 -1.6694813562 0.147108889
8

O -1.6246706385 2.3376514037 -0.2294355249
H -1.3660467313 3.1761410067 -0.6151225423
H -1.1309384689 1.6363118616 -0.7340186658
O -1.2953514071 -1.8894011596 -1.661400619
H -2.2317803182 -1.7963278402 -1.8437842257
H -0.9301757762 -0.9658873414 -1.6225314564
F -0.2626352305 0.4295043419 -1.2657220859
K 0.5836018644 -0.3199872006 1.0747759533
8

O 3.1337800757 0.9380494798 -0.8014214859
H 2.9599069624 1.7185419934 -0.2491587003
H 2.2706452343 0.7298450065 -1.2156884347
O -3.6887195465 0.2796409016 0.9501251226
H -2.9926157263 0.3699424589 1.6193572434
H -3.5437467896 -0.5978164516 0.5572234499
F 0.6861513384 0.0735591317 -1.3602958743
K 1.6654177674 -1.6694813562 0.147108889
8

O 2.8148414394 1.1894712874 0.3432607688
H 3.7277150183 1.4634421001 0.4468609117
H 2.8120647676 0.2058777328 0.3119643372
O -3.12533571 0.4883172712 0.0288644584
H -3.8529371928 0.8299830051 0.5506116946
H -2.5296731079 1.2490462956 -0.1368818744
F 0.546301901 -1.3304296331 -1.485539682
K -1.4327804096 -1.5766559829 -0.0506268385
8

O -0.4351528833 -0.5514538894 -1.8967660296
H -0.7439000192 -1.1775303901 -2.5573463037
H -0.8316582326 -0.8701163641 -1.0348898942
O 2.9138463454 1.6926638853 -0.9709448142
H 3.5913126367 1.9378767833 -1.6040876956
H 2.8940795375 0.719082195 -0.9460692758
F -1.2869392569 -1.3245305423 0.3726263083
K -0.9388097012 0.9230365704 1.3969811103
8

O 0.8030748212 -3.0151597991 0.5539052118
H 0.4917343444 -3.7049456835 -0.0406213439
H 0.0252444689 -2.4230397569 0.6329536581
O -0.4351528833 -0.5514538894 -1.8967660296
H -0.7439000192 -1.1775303901 -2.5573463037
H -0.8316582326 -0.8701163641 -1.0348898942
F -1.2869392569 -1.3245305423 0.3726263083
K -0.9388097012 0.9230365704 1.3969811103
8

O 2.3051114403 -2.0400852355 -0.7619600579
H 1.4128250678 -2.3679357029 -0.9304867243
H 2.385442805 -1.1897878797 -1.2788404913
O -0.1137026384 0.3745530266 -1.800924538
H -0.2865478416 -0.5441672518 -1.5242447188
H 0.8732133264 0.3994391565 -1.9728387976
F 2.4162535021 0.3166076337 -1.7648983576
K 2.6982798032 1.2947516486 0.4324405883
8

O 2.2200458246 -2.0400593417 -0.7537341024
H 1.3068849722 -2.3146458642 -0.9193541374
H 2.3521852439 -1.2045800546 -1.2820426361
O -2.8886234113 0.8401874987 -1.7609273507
H -2.9277432555 1.239154674 -0.8796137596
H -1.9543213259 0.8837182204 -2.019124576
F 2.4484774653 0.3007686109 -1.7862869062
K 2.6887017102 1.257604456 0.4195587786
8

O -2.8276527491 1.1205719965 -1.880892946
H -2.8495473693 1.70634986 -1.1113894488
H -1.8856956207 0.993730252 -2.0772970648
O -3.7745914251 0.0005022094 1.7635174549
H -4.6797145873 -0.1997560566 2.0086107465
H -3.5690534973 -0.5737178119 0.9864958401
F 2.3384640018 0.4430896628 -1.7388237534
K 2.5158133024 1.3884342237 0.4960127703
8

O -1.9938828562 -2.0556799945 -1.3361796019
H -2.1260185641 -2.9962696858 -1.4627748483
H -1.6795663161 -1.9389714792 -0.3869732621
O 2.6543746853 1.3958996147 -0.5536210653
H 3.4714449 1.7754171968 -0.8817540338
H 2.6164104601 0.4577582163 -0.8770503875
F -1.111648218 -1.6240997471 0.9751133205
K -1.0447893198 0.8167781342 1.4440076518
8

O 3.1337800757 0.9380494798 -0.8014214859
H 2.9599069624 1.7185419934 -0.2491587003
H 2.2706452343 0.7298450065 -1.2156884347
O 4.2918249576 -1.3300104241 0.0533730559
H 5.245382643 -1.4148725302 0.0643638238
H 4.0858130534 -0.4250052645 -0.2706087137
F 0.6861513384 0.0735591317 -1.3602958743
K 1.6654177674 -1.6694813562 0.147108889
8

O 3.1337800757 0.9380494798 -0.8014214859
H 2.9599069624 1.7185419934 -0.2491587003
H 2.2706452343 0.7298450065 -1.2156884347
O -0.6215666392 -2.088401762 1.4571868054
H -0.8402869705 -1.2771960189 1.94198822
H -1.3772267091 -2.2245610807 0.8611002341
F 0.6861513384 0.0735591317 -1.3602958743
K 1.6654177674 -1.6694813562 0.147108889
8

O -0.7633499157 0.2536754805 -1.9294023324
H -1.0595792242 -0.6571488677 -1.7960116951
H -1.4899707782 0.8354290394 -1.6387220908
O -2.2864059262 1.9514024111 -0.4245059962
H -3.0672744034 2.5008778693 -0.4963261034
H -2.372566625 1.4096768989 0.4176258665
F -2.0279932993 0.534199175 1.6160680819
K 0.2815274215 0.952263747 0.5884392412
8

O -0.7633499157 0.2536754805 -1.9294023324
H -1.0595792242 -0.6571488677 -1.7960116951
H -1.4899707782 0.8354290394 -1.6387220908
O -2.2864059262 1.9514024111 -0.4245059962
H -3.0672744034 2.5008778693 -0.4963261034
H -2.372566625 1.4096768989 0.4176258665
F -2.0279932993 0.534199175 1.6160680819
K 0.2815274215 0.952263747 0.5884392412
8

O -0.1137026384 0.3745530266 -1.800924538
H -0.2865478416 -0.5441672518 -1.5242447188
H 0.8732133264 0.3994391565 -1.9728387976
O 0.0381138414 1.6056213618 0.5762936412
H -0.8131100648 2.0204456473 0.7921716796
H -0.0903480614 1.2184314423 -0.3290391411
F 2.4162535021 0.3166076337 -1.7648983576
K 2.6982798032 1.2947516486 0.4324405883
8

O 2.3715644794 -1.4776238027 0.1758512958
H 3.0136825012 -2.1525541224 -0.0494245002
H 1.665762981 -1.4745320464 -0.5624607159
O 0.1746093957 -1.155574081 2.0296874932
H 1.0340717779 -1.3813193034 1.643396272
H 0.2133882785 -0.1871006356 2.145772256
F 0.546301901 -1.3304296331 -1.485539682
K -1.4327804096 -1.5766559829 -0.0506268385
8

O -2.1365809165 1.6769604103 -0.1443919967
H -2.6215216306 2.39850928 -0.546141928
H -2.2853224943 0.8885891635 -0.7159681891
O -0.4653755661 -1.6379578115 2.3606554126
H -0.2859162406 -2.4471151179 2.8395271275
H -0.3442743192 -1.8346470295 1.4024632844
F -0.114525719 -1.4178893403 -0.1882222104
K -0.0447623161 0.762993319 1.2290377978
8

O -1.9938828562 -2.0556799945 -1.3361796019
H -2.1260185641 -2.9962696858 -1.4627748483
H -1.6795663161 -1.9389714792 -0.3869732621
O 2.6543746853 1.3958996147 -0.5536210653
H 3.4714449 1.7754171968 -0.8817540338
H 2.6164104601 0.4577582163 -0.8770503875
F -1.111648218 -1.6240997471 0.9751133205
K -1.0447893198 0.8167781342 1.4440076518
8

O 2.8148414394 1.1894712874 0.3432607688
H 3.7277150183 1.4634421001 0.4468609117
H 2.8120647676 0.2058777328 0.3119643372
O -3.12533571 0.4883172712 0.0288644584
H -3.8529371928 0.8299830051 0.5506116946
H -2.5296731079 1.2490462956 -0.1368818744
F 0.546301901 -1.3304296331 -1.485539682
K -1.4327804096 -1.5766559829 -0.0506268385
8

O 3.1337800757 0.9380494798 -0.8014214859
H 2.9599069624 1.7185419934 -0.2491587003
H 2.2706452343 0.7298450065 -1.2156884347
O -0.6215666392 -2.088401762 1.4571868054
H -0.8402869705 -1.2771960189 1.94198822
H -1.3772267091 -2.2245610807 0.8611002341
F 0.6861513384 0.0735591317 -1.3602958743
K 1.6654177674 -1.6694813562 0.147108889
8

O -1.1978671932 0.2371520983 -1.872940914
H -1.7177414379 0.263292343 -2.6765509364
H -1.6721337718 -0.3665000878 -1.2180144055
O -0.1940108388 2.0683089324 -0.0008264036
H -0.6607358286 1.6983583344 0.768664613
H -0.6573473907 1.6952485476 -0.7711159551
F -1.8932742201 -1.2426914449 -0.0035760115
K 0.6034023448 -0.8833195369 0.0028949473
8

O -0.2439489468 -0.6178927595 -2.6856906323
H -0.4140483954 -0.6274957373 -3.6294000695
H -0.9238359236 -1.2098091471 -2.263494833
O 2.6543746853 1.3958996147 -0.5536210653
H 3.4714449 1.7754171968 -0.8817540338
H 2.6164104601 0.4577582163 -0.8770503875
F -1.111648218 -1.6240997471 0.9751133205
K -1.0447893198 0.8167781342 1.4440076518
8

O 2.3045253084 -1.07347308 -0.9742515751
H 2.3367671914 -1.0663358258 -1.9322663545
H 1.3693365189 -1.3105235941 -0.7337215752
O -2.1365809165 1.6769604103 -0.1443919967
H -2.6215216306 2.39850928 -0.546141928
H -2.2853224943 0.8885891635 -0.7159681891
F -0.114525719 -1.4178893403 -0.1882222104
K -0.0447623161 0.762993319 1.2290377978
8

O -1.2953514071 -1.8894011596 -1.661400619
H -2.2317803182 -1.7963278402 -1.8437842257
H -0.9301757762 -0.9658873414 -1.6225314564
O -0.9383436504 1.5368683163 2.2546692979
H -1.6044378402 1.7079734096 2.9214871942
H -1.2626282255 1.9599464581 1.4269067856
F -0.2626352305 0.4295043419 -1.2657220859
K 0.5836018644 -0.3199872006 1.0747759533
8

O 0.735480139 0.9971075223 -1.8224220396
H 0.7629856573 1.4320358307 -2.6752714539
H 0.1759908494 1.5606692174 -1.2166833187
O 1.4417542221 -2.5958264048 0.0106206957
H 1.976331623 -3.3902298486 0.0087746288
H 2.0583215382 -1.8333611771 0.0115252044
F -0.716106645 1.968575745 0.0001264439
K -0.5122028386 -0.7794320269 0.0059923647
8

O -0.118051544 -2.4107489814 0.8234891103
H 0.7316687356 -2.7498858142 1.1178779642
H -0.1838281525 -1.5309125357 1.2325995819
O -2.9381503843 -0.2889849659 0.8084404002
H -3.0500449286 0.4547084213 0.2028671638
H -2.066315876 -0.1376237083 1.206736664
F -0.2032258636 0.2922857945 1.3227137844
K -0.421367754 -0.4165856901 -1.3487419052
8

O 0.3013513522 -0.7415815954 -2.5290545904
H -0.0090160682 -1.125592432 -3.3506160232
H -0.1785985632 -1.2058450168 -1.7824008357
O 2.7962584106 -0.8941739674 -1.157281433
H 2.0771797061 -0.909108974 -1.8107470686
H 2.4851730984 -1.4869323135 -0.4511984185
F -0.7606212127 -1.733545175 -0.4577842674
K -1.4229895487 0.539983163 0.7852078538
