2

K -1.3999999999999997 0.0 0.0
I 4.4659928548 0.0 0.0
2

K -2.55 0.0 0.0
I 5.6159928548 0.0 0.0
2

K -0.9000000000000001 0.0 0.0
I 3.9659928548 0.0 0.0
2

K -1.1500000000000006 0.0 0.0
I 4.2159928548000005 0.0 0.0
2

K 0.0 0.0 0.0
I 3.0659928548 0.0 0.0
2

K -1.45 0.0 0.0
I 4.5159928548 0.0 0.0
2

K -0.5499999999999998 0.0 0.0
I 3.6159928548 0.0 0.0
2

K -1.3999999999999997 0.0 0.0
I 4.4659928548 0.0 0.0
2

K 0.04999999999999989 0.0 0.0
I 3.0159928548000003 0.0 0.0
2

K -0.3999999999999998 0.0 0.0
I 3.4659928548 0.0 0.0
2

K -1.8500000000000005 0.0 0.0
I 4.915992854800001 0.0 0.0
2

K -2.7 0.0 0.0
I 5.7659928548 0.0 0.0
2

K -2.05 0.0 0.0
I 5.1159928548 0.0 0.0
2

K -0.09999999999999978 0.0 0.0
I 3.1659928548 0.0 0.0
2

K -1.2999999999999998 0.0 0.0
I 4.3659928548 0.0 0.0
2

K -0.7999999999999996 0.0 0.0
I 3.8659928548 0.0 0.0
2

K -1.8500000000000005 0.0 0.0
I 4.915992854800001 0.0 0.0
2

K -0.9000000000000001 0.0 0.0
I 3.9659928548 0.0 0.0
2

K -0.9500000000000003 0.0 0.0
I 4.0159928548 0.0 0.0
2

K -2.05 0.0 0.0
I 5.1159928548 0.0 0.0
2

K -0.6499999999999996 0.0 0.0
I 3.7159928547999996 0.0 0.0
2

K -2.2 0.0 0.0
I 5.2659928548 0.0 0.0
2

K -1.2999999999999998 0.0 0.0
I 4.3659928548 0.0 0.0
2

K -1.5999999999999999 0.0 0.0
I 4.6659928548 0.0 0.0
2

K -1.6500000000000001 0.0 0.0
I 4.7159928548000005 0.0 0.0
2

K -1.75 0.0 0.0
I 4.8159928548 0.0 0.0
2

K -2.0000000000000013 0.0 0.0
I 5.065992854800001 0.0 0.0
2

K -0.7500000000000001 0.0 0.0
I 3.8159928548 0.0 0.0
2

K -1.7999999999999996 0.0 0.0
I 4.8659928548 0.0 0.0
2

K -0.30000000000000004 0.0 0.0
I 3.3659928548 0.0 0.0
2

K -0.09999999999999978 0.0 0.0
I 3.1659928548 0.0 0.0
2

K -1.5499999999999998 0.0 0.0
I 4.6159928548 0.0 0.0
2

K -0.04999999999999955 0.0 0.0
I 3.1159928547999995 0.0 0.0
2

K -2.6000000000000005 0.0 0.0
I 5.665992854800001 0.0 0.0
2

K -1.3999999999999997 0.0 0.0
I 4.4659928548 0.0 0.0
2

K -0.7500000000000001 0.0 0.0
I 3.8159928548 0.0 0.0
2

K -1.05 0.0 0.0
I 4.1159928548 0.0 0.0
2

K 0.15000000000000002 0.0 0.0
I 2.9159928548000003 0.0 0.0
2

K -0.35000000000000026 0.0 0.0
I 3.4159928548000003 0.0 0.0
2

K -0.6499999999999996 0.0 0.0
I 3.7159928547999996 0.0 0.0
2

K -1.5999999999999999 0.0 0.0
I 4.6659928548 0.0 0.0
2

K -0.9500000000000003 0.0 0.0
I 4.0159928548 0.0 0.0
2

K -2.2 0.0 0.0
I 5.2659928548 0.0 0.0
2

K -0.5000000000000003 0.0 0.0
I 3.5659928548000006 0.0 0.0
2

K -2.4000000000000004 0.0 0.0
I 5.4659928548000005 0.0 0.0
2

K -1.2000000000000002 0.0 0.0
I 4.2659928548 0.0 0.0
2

K -0.5000000000000003 0.0 0.0
I 3.5659928548000006 0.0 0.0
2

K -0.2499999999999998 0.0 0.0
I 3.3159928548 0.0 0.0
2

K -1.6500000000000001 0.0 0.0
I 4.7159928548000005 0.0 0.0
2

K -1.1500000000000006 0.0 0.0
I 4.2159928548000005 0.0 0.0
5

O 0.399403754 0.4220953279 -2.6387333916
H 0.9533381219 0.4787446469 -3.4222060079
H 0.9231890654 -0.1070605288 -1.9871903981
I 2.0332066073 -1.3394151676 -0.2535541383
K 1.1867632377 1.3966881196 1.4667860801
5

O 2.9350746775 2.0870558723 1.0916111639
H 3.5153856466 2.6561796317 1.5983167523
H 2.786074681 1.2839856608 1.6193858396
I -1.5082462743 -0.3540575131 0.7933684072
K 1.2273246227 1.0685702097 -0.7019800926
5

O -0.0368654706 1.8213945147 -2.8460285543
H -0.1289952611 2.5545760156 -2.2248643281
H -0.7185188554 1.1938590022 -2.5552173857
I -2.0212576347 -0.3255015464 -0.7467123462
K 0.6425866321 -0.9600454209 1.286356258
5

O -3.0562193896 2.2351704286 -0.50038255
H -3.0576674119 1.49723591 -1.1276515686
H -2.1824097206 2.6460048279 -0.5842821573
I 0.9207526769 -1.3790076342 0.5025641066
K -0.1418491446 1.5099346282 2.0139382488
5

O 3.0527230181 1.1593115797 -0.0901164381
H 4.007774424 1.0848355399 -0.0692518412
H 2.7591617632 1.1677638567 0.845580367
I -1.1122899544 -0.3858983782 1.2594777196
K 0.8585843655 0.4782330823 -1.4283666693
5

O 0.0594310836 3.2241346365 -2.146733351
H -0.0752613042 3.8731511595 -2.8406140485
H -0.5122862683 3.4799826968 -1.3978205078
I 2.107460758 -0.8120799581 -0.2217967317
K 0.4275660175 1.5444159858 1.5805803314
5

O 1.2167462166 1.2320831408 -1.8371802513
H 1.3824098459 0.5268284419 -1.1850541189
H 0.6760604636 0.7661818514 -2.5089525995
I 0.9207526769 -1.3790076342 0.5025641066
K -0.1418491446 1.5099346282 2.0139382488
5

O -0.3512325591 0.0273693273 -2.8623441897
H 0.0965099427 0.8476687978 -2.6076989117
H -1.0644435516 -0.0719339825 -2.2084743246
I -2.1344652849 -0.0831798403 0.2156854805
K 0.3685669201 1.9881380675 0.6578092984
5

O -2.7922665356 1.2360331894 -0.3231128691
H -2.0541409292 0.889858174 -0.8611363776
H -3.4907586824 0.54714025 -0.3844647448
I 2.107460758 -0.8120799581 -0.2217967317
K 0.4275660175 1.5444159858 1.5805803314
5

O 1.1647035272 -1.1393543488 3.066706761
H 1.8176927526 -1.8418186697 3.0131739995
H 0.5400510851 -1.3305720952 2.3446392181
I -0.5756610258 -1.4083430782 -0.0222520052
K 0.7503706206 1.7673293182 0.0760613246
5

O -0.3512325591 0.0273693273 -2.8623441897
H 0.0965099427 0.8476687978 -2.6076989117
H -1.0644435516 -0.0719339825 -2.2084743246
I -2.1344652849 -0.0831798403 0.2156854805
K 0.3685669201 1.9881380675 0.6578092984
5

O -2.5287350509 1.401902709 -0.4972992694
H -3.1041037242 0.6079317926 -0.5088686417
H -1.8958535257 1.2959365583 -1.2396040512
I 1.5256562684 -0.9350698348 -0.6076098347
K 0.5146836995 1.4930435996 1.5506837441
5

O 2.4343549638 3.4963133798 -0.7400904384
H 2.8833156433 4.2094960523 -1.1951075411
H 2.8368082542 2.6618829015 -1.0393596778
I -1.9213076638 0.0186096627 -0.025188211
K 0.7623071253 1.9111832191 0.6587005935
5

O -2.5287350509 1.401902709 -0.4972992694
H -3.1041037242 0.6079317926 -0.5088686417
H -1.8958535257 1.2959365583 -1.2396040512
I 1.5256562684 -0.9350698348 -0.6076098347
K 0.5146836995 1.4930435996 1.5506837441
5

O -0.4510779483 0.8267509225 -3.7243010582
H -0.7179485212 1.0902505988 -4.6055440333
H -1.1413442575 0.2259453006 -3.3816371083
I -1.1122899544 -0.3858983782 1.2594777196
K 0.8585843655 0.4782330823 -1.4283666693
5

O 0.105769664 -3.1423245003 0.2589632896
H -0.0977492009 -2.6004921992 1.0354852005
H -0.661599758 -3.0256128339 -0.332066838
I -1.9054383204 0.9186278591 -0.2832477503
K 1.2135611583 0.6916382578 1.0837742615
5

O 2.1398650665 2.7549918883 -0.1460070982
H 1.6962157301 3.0346983943 -0.9575075891
H 2.5110731207 1.8845366508 -0.3562040893
I 2.107460758 -0.8120799581 -0.2217967317
K 0.4275660175 1.5444159858 1.5805803314
5

O -1.8759558793 -0.9327360731 -2.2060649174
H -1.2920258994 -1.6787846062 -2.0099768832
H -2.1639829269 -0.6342691925 -1.3302600707
I -1.1122899544 -0.3858983782 1.2594777196
K 0.8585843655 0.4782330823 -1.4283666693
5

O 1.8316569978 0.2605677085 2.4935461444
H 2.6843017733 -0.091200917 2.1977247054
H 1.2606279821 -0.5193468632 2.563376007
I -1.9213076638 0.0186096627 -0.025188211
K 0.7623071253 1.9111832191 0.6587005935
5

O 0.4138669871 -1.5917927737 -1.9736730699
H -0.4527147122 -1.3421416803 -1.6176636107
H 0.7660650814 -2.1933233742 -1.2991191626
I -1.5082462743 -0.3540575131 0.7933684072
K 1.2273246227 1.0685702097 -0.7019800926
5

O 1.4050743271 0.4193455303 2.2445280496
H 2.2778902023 0.0215581802 2.1147891597
H 0.8254587708 -0.3260472478 2.4581645478
I -2.1684685365 -0.2714716615 -0.1028700428
K 0.5741153939 1.730321262 0.0454882961
5

O 3.0462638925 1.6124406989 0.8654170013
H 2.8995019786 1.9277864889 1.7596313361
H 3.2755251362 0.667054401 0.9553214085
I -1.3140625293 0.3233776992 0.704357483
K 1.1735955754 1.611539487 -1.0254267983
5

O 0.6116505618 -2.3806130992 -1.000511784
H 0.1754093467 -3.130276787 -1.4134486489
H -0.1109278258 -1.7533844647 -0.7618277467
I -1.4602135594 0.0817994981 0.0869165562
K 1.5227091671 1.3835541577 -0.3342559135
5

O -2.6467680302 0.579737847 2.0108788256
H -3.2632956212 0.4583004052 2.7360200051
H -2.7105022508 -0.2411461386 1.4535859434
I 0.8829112789 -1.7405845065 0.1014692044
K 0.0504300011 1.0705437958 1.7208093024
5

O 1.8451379939 -0.3069027576 1.837740402
H 1.9663645594 -1.2345033903 1.5959786767
H 0.8811432537 -0.2278294896 1.9443858702
I -1.5082462743 -0.3540575131 0.7933684072
K 1.2273246227 1.0685702097 -0.7019800926
5

O 1.7756641415 0.4104644557 2.2387144895
H 1.2450161757 -0.3809488113 2.4196205302
H 2.6243202222 0.0671029043 1.9159821165
I -2.1344652849 -0.0831798403 0.2156854805
K 0.3685669201 1.9881380675 0.6578092984
5

O -1.4602511579 2.3565592937 -0.7668655337
H -1.6946878957 1.739244185 -1.4751056956
H -2.1982022442 2.3086671837 -0.140686238
I 0.993107704 -1.4587096534 -1.2407773533
K 0.807038632 1.5521541391 0.449834488
5

O -2.964865928 -0.3007581726 -1.9275294276
H -3.7299698771 -0.5913982946 -2.4295786147
H -2.9175313277 -0.8714712403 -1.1342370896
I 0.9207526769 -1.3790076342 0.5025641066
K -0.1418491446 1.5099346282 2.0139382488
5

O 1.2167462166 1.2320831408 -1.8371802513
H 1.3824098459 0.5268284419 -1.1850541189
H 0.6760604636 0.7661818514 -2.5089525995
I 0.9207526769 -1.3790076342 0.5025641066
K -0.1418491446 1.5099346282 2.0139382488
5

O -1.9365086246 0.5814696245 2.3084750549
H -2.197968905 -0.3435652869 2.4367296411
H -2.3744284548 0.8214010347 1.4746958272
I 2.107460758 -0.8120799581 -0.2217967317
K 0.4275660175 1.5444159858 1.5805803314
5

O -2.6576773533 0.8953253866 0.7237305219
H -3.5154547539 0.6560749024 1.082641879
H -2.2208258972 0.055160381 0.483916759
I -0.4198690896 -1.6254456346 -0.1700465134
K 0.8287317503 1.6470334694 -0.7834741997
5

O 2.2805121257 -2.4659034522 -1.1138509254
H 2.5996350206 -3.204445394 -1.6360783394
H 1.5056963096 -2.7982365851 -0.5922458764
I -1.9054383204 0.9186278591 -0.2832477503
K 1.2135611583 0.6916382578 1.0837742615
5

O 2.2004442334 1.6825465011 -2.1717110537
H 2.9867255049 2.0045651547 -2.6143891245
H 2.0585510765 0.7697024693 -2.4986653233
I -0.5756610258 -1.4083430782 -0.0222520052
K 0.7503706206 1.7673293182 0.0760613246
5

O 1.6308941604 -0.930628122 -2.7342035883
H 1.0695881092 -1.1780562837 -3.4734093593
H 1.1210854799 -1.1912729861 -1.945292785
I -0.5756610258 -1.4083430782 -0.0222520052
K 0.7503706206 1.7673293182 0.0760613246
5

O 2.3940762889 3.6679838467 -0.3856118112
H 2.8883645223 4.4873388979 -0.3468643099
H 3.0433087946 2.9429538827 -0.4473398095
I -2.1684685365 -0.2714716615 -0.1028700428
K 0.5741153939 1.730321262 0.0454882961
5

O 1.7848829587 -2.675888054 0.3524436673
H 1.3341305147 -2.5452991384 -0.4951258452
H 1.0833699442 -2.6054487684 1.0224622123
I -2.1684685365 -0.2714716615 -0.1028700428
K 0.5741153939 1.730321262 0.0454882961
5

O 2.4402606131 0.9005430968 -1.5215884586
H 2.0824117665 0.0933619892 -1.9207250724
H 3.013339971 0.5872896471 -0.8043275133
I -1.2247336173 -0.7349575216 0.4390070008
K 0.4401217168 2.2499916988 -0.3478977557
5

O 1.6183381156 0.6421175847 3.2780669929
H 0.6527745228 0.5662666364 3.2588531042
H 1.9533428258 -0.2161350865 2.9635101064
I 0.993107704 -1.4587096534 -1.2407773533
K 0.807038632 1.5521541391 0.449834488
5

O -1.7927916015 2.0229200708 -0.6822288313
H -1.6173200173 2.149664402 0.2610081251
H -0.9102937529 1.9192404059 -1.0673110761
I 1.5438490853 0.5190621406 -0.4356997528
K -1.5656180702 -0.8902029417 0.1964179889
5

O 2.5037522278 1.907235996 1.5524099117
H 2.7381618154 0.9989921784 1.3307179658
H 2.7255442309 2.4310270493 0.7640726001
I 0.9207526769 -1.3790076342 0.5025641066
K -0.1418491446 1.5099346282 2.0139382488
5

O 2.9402693132 1.9179516521 -0.7537887245
H 3.1818963151 2.717743945 -1.224074021
H 2.3878659473 1.3877421715 -1.3613738985
I -1.9054383204 0.9186278591 -0.2832477503
K 1.2135611583 0.6916382578 1.0837742615
5

O -0.4551072359 2.4294176298 -0.6183240949
H 0.3260922948 2.9561341848 -0.8389153447
H -0.4751438223 1.7061146566 -1.2834758153
I 0.8829112789 -1.7405845065 0.1014692044
K 0.0504300011 1.0705437958 1.7208093024
5

O 0.8869295809 1.1169297485 -2.1052945547
H 0.8664001222 1.3127043303 -3.0446973578
H -0.0315318942 1.2160860111 -1.7847927479
I -1.8235961417 0.7131423288 0.0001240407
K 1.1334874315 -0.832121851 0.0011402372
5

O -2.6576773533 0.8953253866 0.7237305219
H -3.5154547539 0.6560749024 1.082641879
H -2.2208258972 0.055160381 0.483916759
I -0.4198690896 -1.6254456346 -0.1700465134
K 0.8287317503 1.6470334694 -0.7834741997
5

O -2.5287350509 1.401902709 -0.4972992694
H -3.1041037242 0.6079317926 -0.5088686417
H -1.8958535257 1.2959365583 -1.2396040512
I 1.5256562684 -0.9350698348 -0.6076098347
K 0.5146836995 1.4930435996 1.5506837441
5

O -3.1725623311 0.9924001227 -0.2210152785
H -3.7057028861 0.7334509252 0.5349486822
H -2.533094694 0.2649072575 -0.3265498828
I -0.5756610258 -1.4083430782 -0.0222520052
K 0.7503706206 1.7673293182 0.0760613246
5

O -0.4842982827 0.5585144562 3.2148642739
H -0.0437149078 1.1353758988 3.8417662455
H -1.2684611038 1.0466331177 2.9054418976
I -2.0212576347 -0.3255015464 -0.7467123462
K 0.6425866321 -0.9600454209 1.286356258
5

O 3.1716095557 1.0644474462 0.4403560986
H 4.0774563301 0.7967187718 0.2770974412
H 2.8556219736 0.5067525141 1.1734886642
I -0.4198690896 -1.6254456346 -0.1700465134
K 0.8287317503 1.6470334694 -0.7834741997
5

O 1.2561127107 0.0654446846 -1.7712340063
H 0.2901741483 0.1275479486 -1.7541433494
H 1.4990477336 -0.8754278973 -1.7729297326
I -1.9054383204 0.9186278591 -0.2832477503
K 1.2135611583 0.6916382578 1.0837742615
5

O 1.9254626205 1.065929526 2.3972809191
H 1.6872147212 1.8611476417 2.8797785204
H 1.0832523757 0.5962148592 2.2543280428
I -1.1122899544 -0.3858983782 1.2594777196
K 0.8585843655 0.4782330823 -1.4283666693
8

O 4.7270310914 -1.3961537193 -0.2722850883
H 5.5921876174 -1.8081642186 -0.3170608913
H 4.8229202161 -0.4787461783 -0.6280405703
O 2.9044591865 -0.6778191354 1.835422001
H 2.9120626484 0.2852369284 1.8825507668
H 3.6794376659 -0.9230462481 1.3105548709
I -2.2816560472 -0.5564545513 -0.7688865416
K 0.40576264 -1.4492405192 1.0744552352
8

O 0.2694551782 -2.1243532982 1.6151263344
H 0.4615496896 -2.4399744326 0.7177372632
H -0.5400449965 -1.5977359482 1.5138523645
O 2.495343498 1.6876521292 1.3143658722
H 3.1097102493 1.6015230991 0.5694172345
H 2.5760277827 0.849247488 1.7985039334
I -2.2503807656 -0.0641521511 0.1101878917
K 0.0984524427 2.2515328435 0.3099749511
8

O 0.4138669871 -1.5917927737 -1.9736730699
H -0.4527147122 -1.3421416803 -1.6176636107
H 0.7660650814 -2.1933233742 -1.2991191626
O 0.9475545505 -2.7778867479 0.5763582581
H 0.7764220273 -3.6738624384 0.8776565495
H 0.1265929928 -2.2737679484 0.7581539066
I -1.5082462743 -0.3540575131 0.7933684072
K 1.2273246227 1.0685702097 -0.7019800926
8

O -1.6290239016 3.2672168094 0.0856414634
H -1.9759319277 4.0625082848 0.4924243426
H -2.3493411272 2.6045316438 0.1313972319
O 2.6301394441 -1.1807773563 -1.0327138303
H 2.74646527 -1.3953639358 -0.0977360305
H 1.6957102362 -1.3878409382 -1.1909352207
I -0.8409136376 -1.2835127275 -0.2043246794
K 0.6098518904 1.815792555 -0.157125992
8

O 0.7756175637 -2.1100140908 -2.2599516075
H 0.5791381931 -2.8437707855 -2.8469954266
H 0.0395588157 -2.0836436347 -1.616860652
O -1.1331437951 1.7370549551 -1.0519621404
H -1.7614376724 2.3608111421 -1.4237182768
H -1.6360921113 0.9228765219 -0.8445105674
I -1.6749010262 -1.4308598214 0.1462775709
K 0.5161058431 0.9563702734 1.1582345874
8

O 0.1936908535 -1.7349454229 2.8268361148
H 0.3120456483 -2.6725070005 2.6560817053
H -0.410424405 -1.4299561254 2.125760555
O 2.3106919094 -0.0047048142 2.6479414016
H 2.7577772669 0.1125635947 3.4872414914
H 1.6072959849 -0.6694533191 2.8067017437
I -1.3965811221 -0.4863729212 -0.102518493
K 1.6509232993 1.0877687709 0.3117255126
8

O 2.2004442334 1.6825465011 -2.1717110537
H 2.9867255049 2.0045651547 -2.6143891245
H 2.0585510765 0.7697024693 -2.4986653233
O -3.1725623311 0.9924001227 -0.2210152785
H -3.7057028861 0.7334509252 0.5349486822
H -2.533094694 0.2649072575 -0.3265498828
I -0.5756610258 -1.4083430782 -0.0222520052
K 0.7503706206 1.7673293182 0.0760613246
8

O 2.288003791 -0.4560311128 -2.0961797464
H 3.0299455887 -0.7837250631 -2.6063966248
H 1.7532878387 -1.2386990082 -1.8608752727
O 2.8459713007 0.4400832254 1.7415537797
H 3.4934014187 0.4683340768 2.4467466924
H 2.3147985528 -0.3752641393 1.8826886959
I -1.4602135594 0.0817994981 0.0869165562
K 1.5227091671 1.3835541577 -0.3342559135
8

O 1.940628956 -1.5655642266 1.8656459947
H 2.0132906329 -2.241974875 2.5432667348
H 1.0394558213 -1.6470263142 1.49489302
O 2.6301394441 -1.1807773563 -1.0327138303
H 2.74646527 -1.3953639358 -0.0977360305
H 1.6957102362 -1.3878409382 -1.1909352207
I -0.8409136376 -1.2835127275 -0.2043246794
K 0.6098518904 1.815792555 -0.157125992
8

O 0.4138669871 -1.5917927737 -1.9736730699
H -0.4527147122 -1.3421416803 -1.6176636107
H 0.7660650814 -2.1933233742 -1.2991191626
O 2.0156602275 0.291318287 -3.1347351067
H 2.3201805359 0.2779913772 -4.0427808872
H 1.4854527859 -0.5146835219 -2.9977870457
I -1.5082462743 -0.3540575131 0.7933684072
K 1.2273246227 1.0685702097 -0.7019800926
8

O -0.910072702 -1.7042342768 2.193297889
H -0.7347911672 -2.0191399 3.08160177
H -0.0658142988 -1.3434645047 1.8663483394
O -2.9120495646 1.8799696011 -0.1453004163
H -3.6134136205 2.5088662367 0.0296059757
H -2.0849964921 2.4061057634 -0.2019698249
I 1.2793175958 0.0807393766 0.1398445446
K -2.1125635691 -0.6387395051 0.0647002421
8

O -0.910072702 -1.7042342768 2.193297889
H -0.7347911672 -2.0191399 3.08160177
H -0.0658142988 -1.3434645047 1.8663483394
O -0.4753020135 3.1376243382 -0.2473292071
H -0.1647768554 3.4691712459 -1.0934750733
H 0.1569561771 2.4339020073 -0.0113784868
I 1.2793175958 0.0807393766 0.1398445446
K -2.1125635691 -0.6387395051 0.0647002421
8

O -0.7742407515 -1.9125935454 -1.8487736478
H -0.5026427874 -2.4335136816 -2.6063444362
H 0.0343745341 -1.486708609 -1.5093111036
O -2.9120495646 1.8799696011 -0.1453004163
H -3.6134136205 2.5088662367 0.0296059757
H -2.0849964921 2.4061057634 -0.2019698249
I 1.2793175958 0.0807393766 0.1398445446
K -2.1125635691 -0.6387395051 0.0647002421
8

O 0.0610422181 0.7280847061 2.6299426336
H -0.7626779231 1.2039901754 2.453069432
H 0.7484495494 1.2613956358 2.2007934358
O -0.2075386465 1.7865952911 -2.4678035677
H -0.3267156546 2.4495885209 -1.769813281
H -0.9009957858 1.129150127 -2.2905046706
I -2.2816560472 -0.5564545513 -0.7688865416
K 0.40576264 -1.4492405192 1.0744552352
8

O 2.8605562396 -0.3617171563 -2.3655553226
H 3.4337872649 -0.6729186449 -3.0678885898
H 2.6949150795 -1.1249652104 -1.7719823236
O 1.7348509755 -0.8826203219 2.0093835184
H 1.9633206427 -1.1419057721 2.9051725548
H 0.7729664357 -0.6893315184 2.0161599031
I -1.5235475732 -0.0461251994 1.2148814599
K 0.4323953709 0.5148407267 -1.4247557944
8

O -0.1676770263 -2.2252872732 -1.4211880359
H -0.7511667022 -2.7798545225 -1.94425491
H -0.7337014918 -1.5484840589 -0.9991821603
O 1.0680385322 -2.2317118387 1.2518696424
H 0.7267460352 -2.6155211111 0.4324056061
H 0.4440101249 -1.5025077053 1.4171212368
I -1.3140625293 0.3233776992 0.704357483
K 1.1735955754 1.611539487 -1.0254267983
8

O -0.7742407515 -1.9125935454 -1.8487736478
H -0.5026427874 -2.4335136816 -2.6063444362
H 0.0343745341 -1.486708609 -1.5093111036
O -2.9120495646 1.8799696011 -0.1453004163
H -3.6134136205 2.5088662367 0.0296059757
H -2.0849964921 2.4061057634 -0.2019698249
I 1.2793175958 0.0807393766 0.1398445446
K -2.1125635691 -0.6387395051 0.0647002421
8

O 1.2561127107 0.0654446846 -1.7712340063
H 0.2901741483 0.1275479486 -1.7541433494
H 1.4990477336 -0.8754278973 -1.7729297326
O -0.6455281775 -1.1246521692 2.2064732615
H -1.0943250884 -1.351545843 3.0246454829
H -1.3088896751 -0.6742348005 1.6450343513
I -1.9054383204 0.9186278591 -0.2832477503
K 1.2135611583 0.6916382578 1.0837742615
8

O -0.6717784671 -0.3480053244 -3.2780959003
H -1.3175309064 -0.9164274186 -3.7054983286
H -1.0836189301 -0.112185158 -2.4243896532
O 1.8316569978 0.2605677085 2.4935461444
H 2.6843017733 -0.091200917 2.1977247054
H 1.2606279821 -0.5193468632 2.563376007
I -1.9213076638 0.0186096627 -0.025188211
K 0.7623071253 1.9111832191 0.6587005935
8

O -1.5209165133 3.1693481605 -0.0717934656
H -1.9216228058 3.9745545909 -0.4017849984
H -2.2161342771 2.4801170488 -0.1126181276
O 1.6308941604 -0.930628122 -2.7342035883
H 1.0695881092 -1.1780562837 -3.4734093593
H 1.1210854799 -1.1912729861 -1.945292785
I -0.5756610258 -1.4083430782 -0.0222520052
K 0.7503706206 1.7673293182 0.0760613246
8

O -0.910072702 -1.7042342768 2.193297889
H -0.7347911672 -2.0191399 3.08160177
H -0.0658142988 -1.3434645047 1.8663483394
O -0.7742407515 -1.9125935454 -1.8487736478
H -0.5026427874 -2.4335136816 -2.6063444362
H 0.0343745341 -1.486708609 -1.5093111036
I 1.2793175958 0.0807393766 0.1398445446
K -2.1125635691 -0.6387395051 0.0647002421
8

O 1.2304359221 1.5682066551 -1.9964947907
H 0.8300803069 0.7579028911 -2.3434451487
H 2.1745765379 1.3733771851 -1.8815195707
O 3.6065107995 -1.5251018607 -0.2218665738
H 2.8544798814 -2.0079869605 -0.6015236271
H 3.3887549874 -1.4236629727 0.7198367582
I -2.2503807656 -0.0641521511 0.1101878917
K 0.0984524427 2.2515328435 0.3099749511
8

O -4.2333834851 -1.0636616445 -0.4311892388
H -3.7102417146 -1.4808390149 -1.1311749897
H -3.9256675157 -1.4847693503 0.3887702305
O -0.6126600737 0.4714398424 -1.8677608191
H -0.3327305843 1.3183478902 -2.2512977173
H 0.1922308461 0.08817583 -1.4541957126
I 2.107460758 -0.8120799581 -0.2217967317
K 0.4275660175 1.5444159858 1.5805803314
8

O 1.0680385322 -2.2317118387 1.2518696424
H 0.7267460352 -2.6155211111 0.4324056061
H 0.4440101249 -1.5025077053 1.4171212368
O 3.0462638925 1.6124406989 0.8654170013
H 2.8995019786 1.9277864889 1.7596313361
H 3.2755251362 0.667054401 0.9553214085
I -1.3140625293 0.3233776992 0.704357483
K 1.1735955754 1.611539487 -1.0254267983
8

O -0.4883332158 0.1042642256 -2.4517265396
H -1.4336032611 -0.1075576412 -2.5427917439
H -0.104292739 -0.5932131618 -1.8870010094
O -0.5816287294 2.2784679938 -0.7333711254
H 0.0568404221 2.900184173 -1.0970552999
H -0.5378008969 1.5062230462 -1.3371331074
I 0.8897527346 -1.6850613392 0.2186270162
K -0.0083503068 1.1866792238 1.7232997539
8

O 1.0847498193 -2.5845376066 -1.4988677301
H 0.3753501428 -2.0889230783 -1.9388792601
H 0.8054872317 -2.6612107668 -0.5706082838
O 1.4549879299 0.9826832599 -1.9951244298
H 0.6855962636 0.5173715448 -2.3637855159
H 2.184839198 0.3416223237 -2.0335824166
I -2.2276286297 0.0254940334 0.4176682052
K 0.6788365427 1.6898579561 0.6595883418
8

O -0.2171596489 -2.7881159049 1.8013382326
H -0.7124860157 -3.2629374765 2.4728712264
H -0.8535208697 -2.1856669226 1.3675869191
O 1.7157818354 -0.7524700877 1.5613500321
H 1.206945603 -1.5250881838 1.8502867965
H 1.8858308338 -0.8945775815 0.6139450903
I -2.0645724663 -0.5746789935 -0.2040914465
K 0.2981560198 1.5904234265 1.1161499977
8

O -0.4935747079 -2.8331781916 1.4564144753
H -1.0346433948 -3.4810693818 1.914308083
H -1.116208886 -2.1744471259 1.0834884503
O 0.2840453984 -0.9636818858 -2.4527474728
H -0.0127282791 -0.988026238 -3.3657433788
H -0.4997079923 -0.7123600179 -1.9198957653
I -2.1415985975 -0.2073133442 -0.0750136392
K 0.6195891873 1.3401864103 1.0830271537
8

O -3.3700987926 1.9452206586 -0.4576429192
H -3.3236931861 1.5867204964 0.4431898703
H -2.4952849431 2.3419827147 -0.5996750425
O -2.6926769506 0.5341241924 1.9681358688
H -3.293053625 0.406771079 2.7057909085
H -2.720381158 -0.3096159196 1.4416822821
I 0.8897527346 -1.6850613392 0.2186270162
K -0.0083503068 1.1866792238 1.7232997539
8

O 0.7102293806 0.9747750573 -2.4096494429
H -0.0898504081 0.5015962726 -2.6707355203
H 1.3352015415 0.283896994 -2.1384271418
O 3.1034763071 2.3458412994 1.261847883
H 3.8075359345 2.6938347791 1.8114594889
H 3.3147125038 1.4089349185 1.1022736839
I 2.5121172483 -0.8773625132 0.0767576479
K 0.7016104247 2.0245788969 0.099210106
8

O 0.4138669871 -1.5917927737 -1.9736730699
H -0.4527147122 -1.3421416803 -1.6176636107
H 0.7660650814 -2.1933233742 -1.2991191626
O 2.0156602275 0.291318287 -3.1347351067
H 2.3201805359 0.2779913772 -4.0427808872
H 1.4854527859 -0.5146835219 -2.9977870457
I -1.5082462743 -0.3540575131 0.7933684072
K 1.2273246227 1.0685702097 -0.7019800926
8

O -0.4935747079 -2.8331781916 1.4564144753
H -1.0346433948 -3.4810693818 1.914308083
H -1.116208886 -2.1744471259 1.0834884503
O 1.5373747433 -0.909345997 2.2485213631
H 2.2962090338 -1.2577412135 1.7580897884
H 0.8672440375 -1.6069212157 2.1911245599
I -2.1415985975 -0.2073133442 -0.0750136392
K 0.6195891873 1.3401864103 1.0830271537
8

O -0.910072702 -1.7042342768 2.193297889
H -0.7347911672 -2.0191399 3.08160177
H -0.0658142988 -1.3434645047 1.8663483394
O -0.7742407515 -1.9125935454 -1.8487736478
H -0.5026427874 -2.4335136816 -2.6063444362
H 0.0343745341 -1.486708609 -1.5093111036
I 1.2793175958 0.0807393766 0.1398445446
K -2.1125635691 -0.6387395051 0.0647002421
8

O -0.4935747079 -2.8331781916 1.4564144753
H -1.0346433948 -3.4810693818 1.914308083
H -1.116208886 -2.1744471259 1.0834884503
O 1.5373747433 -0.909345997 2.2485213631
H 2.2962090338 -1.2577412135 1.7580897884
H 0.8672440375 -1.6069212157 2.1911245599
I -2.1415985975 -0.2073133442 -0.0750136392
K 0.6195891873 1.3401864103 1.0830271537
8

O 3.939147264 1.0606948004 -0.8498755118
H 4.7824019286 1.0603439306 -1.3072860543
H 3.5370997913 0.1856926801 -1.0050501876
O 0.5432857227 -3.2434052799 -0.9595847249
H 0.4594812021 -3.4563503929 -0.0197339487
H -0.2675825599 -2.7456236936 -1.1344092195
I -2.0645724663 -0.5746789935 -0.2040914465
K 0.2981560198 1.5904234265 1.1161499977
8

O 0.1757657289 -2.3253892523 1.1400227841
H -0.267411758 -2.8027361332 1.8458379697
H -0.4456869415 -1.5999943439 0.8844058122
O 3.8370137627 1.3569869886 0.8611590548
H 4.6391034958 1.5930213662 1.3291345458
H 3.7202546045 0.3976823611 0.9634070769
I -1.7766492202 0.2542290445 0.1423031985
K 1.3813630744 1.355677885 -0.2530172752
8

O -1.3412555939 0.8223406883 1.6257212151
H -2.0434837267 0.5273658504 2.2209813912
H -1.8105448505 1.2693405066 0.8925443561
O -4.6449462805 -1.0140014348 -1.5320833242
H -5.4106679002 -1.2630390791 -2.0543432192
H -4.8932148984 -0.2171957328 -1.0276405884
I 2.5121172483 -0.8773625132 0.0767576479
K 0.7016104247 2.0245788969 0.099210106
8

O 2.288003791 -0.4560311128 -2.0961797464
H 3.0299455887 -0.7837250631 -2.6063966248
H 1.7532878387 -1.2386990082 -1.8608752727
O 1.1439374373 -1.6843118558 1.8245007942
H 1.2082317745 -2.213440106 1.018135262
H 0.2627111926 -1.2821542185 1.7508634854
I -1.4602135594 0.0817994981 0.0869165562
K 1.5227091671 1.3835541577 -0.3342559135
8

O 3.1084238623 1.0719756738 2.1742417998
H 3.3126735047 0.401657358 1.5095599821
H 3.1786672998 1.9057505707 1.6906667911
O -1.1331437951 1.7370549551 -1.0519621404
H -1.7614376724 2.3608111421 -1.4237182768
H -1.6360921113 0.9228765219 -0.8445105674
I -1.6749010262 -1.4308598214 0.1462775709
K 0.5161058431 0.9563702734 1.1582345874
8

O -0.6126600737 0.4714398424 -1.8677608191
H -0.3327305843 1.3183478902 -2.2512977173
H 0.1922308461 0.08817583 -1.4541957126
O -2.8031969825 -2.0996368382 1.8582939239
H -3.0858190567 -2.8240418413 2.4203122607
H -2.0467811463 -2.4389730001 1.3195824314
I 2.107460758 -0.8120799581 -0.2217967317
K 0.4275660175 1.5444159858 1.5805803314
8

O 2.6554320573 -1.1053713539 0.6351001745
H 2.7501130592 -1.6890689799 -0.128797813
H 1.9045747305 -1.4942083787 1.114185314
O 3.8370137627 1.3569869886 0.8611590548
H 4.6391034958 1.5930213662 1.3291345458
H 3.7202546045 0.3976823611 0.9634070769
I -1.7766492202 0.2542290445 0.1423031985
K 1.3813630744 1.355677885 -0.2530172752
8

O -1.5209165133 3.1693481605 -0.0717934656
H -1.9216228058 3.9745545909 -0.4017849984
H -2.2161342771 2.4801170488 -0.1126181276
O 1.6308941604 -0.930628122 -2.7342035883
H 1.0695881092 -1.1780562837 -3.4734093593
H 1.1210854799 -1.1912729861 -1.945292785
I -0.5756610258 -1.4083430782 -0.0222520052
K 0.7503706206 1.7673293182 0.0760613246
8

O 2.2519564546 1.2242418868 1.9122262448
H 3.1833905711 1.4457042688 1.9706790765
H 2.200305331 0.2628461692 2.0559147145
O 2.6301394441 -1.1807773563 -1.0327138303
H 2.74646527 -1.3953639358 -0.0977360305
H 1.6957102362 -1.3878409382 -1.1909352207
I -0.8409136376 -1.2835127275 -0.2043246794
K 0.6098518904 1.815792555 -0.157125992
8

O 2.2519564546 1.2242418868 1.9122262448
H 3.1833905711 1.4457042688 1.9706790765
H 2.200305331 0.2628461692 2.0559147145
O 2.6301394441 -1.1807773563 -1.0327138303
H 2.74646527 -1.3953639358 -0.0977360305
H 1.6957102362 -1.3878409382 -1.1909352207
I -0.8409136376 -1.2835127275 -0.2043246794
K 0.6098518904 1.815792555 -0.157125992
8

O -1.3412555939 0.8223406883 1.6257212151
H -2.0434837267 0.5273658504 2.2209813912
H -1.8105448505 1.2693405066 0.8925443561
O -4.6449462805 -1.0140014348 -1.5320833242
H -5.4106679002 -1.2630390791 -2.0543432192
H -4.8932148984 -0.2171957328 -1.0276405884
I 2.5121172483 -0.8773625132 0.0767576479
K 0.7016104247 2.0245788969 0.099210106
8

O 1.0908519007 0.6269006103 -2.447633879
H 0.2669102408 1.0256629275 -2.1181769118
H 0.8870113946 -0.3034569894 -2.6554721659
O -1.1331437951 1.7370549551 -1.0519621404
H -1.7614376724 2.3608111421 -1.4237182768
H -1.6360921113 0.9228765219 -0.8445105674
I -1.6749010262 -1.4308598214 0.1462775709
K 0.5161058431 0.9563702734 1.1582345874
8

O 2.861213794 0.3293333561 -1.9348313786
H 3.6880741319 0.1188426839 -2.3702450939
H 2.1706022088 -0.2045060362 -2.3821046592
O 0.7462861574 -1.139036378 -2.8193573318
H 0.1984379057 -0.8792823832 -3.5641540819
H 0.1437676292 -1.1104293028 -2.0522514677
I -1.3965811221 -0.4863729212 -0.102518493
K 1.6509232993 1.0877687709 0.3117255126
8

O -0.6717784671 -0.3480053244 -3.2780959003
H -1.3175309064 -0.9164274186 -3.7054983286
H -1.0836189301 -0.112185158 -2.4243896532
O 1.8316569978 0.2605677085 2.4935461444
H 2.6843017733 -0.091200917 2.1977247054
H 1.2606279821 -0.5193468632 2.563376007
I -1.9213076638 0.0186096627 -0.025188211
K 0.7623071253 1.9111832191 0.6587005935
8

O 1.0847498193 -2.5845376066 -1.4988677301
H 0.3753501428 -2.0889230783 -1.9388792601
H 0.8054872317 -2.6612107668 -0.5706082838
O 1.4549879299 0.9826832599 -1.9951244298
H 0.6855962636 0.5173715448 -2.3637855159
H 2.184839198 0.3416223237 -2.0335824166
I -2.2276286297 0.0254940334 0.4176682052
K 0.6788365427 1.6898579561 0.6595883418
8

O 0.4138669871 -1.5917927737 -1.9736730699
H -0.4527147122 -1.3421416803 -1.6176636107
H 0.7660650814 -2.1933233742 -1.2991191626
O 2.9350746775 2.0870558723 1.0916111639
H 3.5153856466 2.6561796317 1.5983167523
H 2.786074681 1.2839856608 1.6193858396
I -1.5082462743 -0.3540575131 0.7933684072
K 1.2273246227 1.0685702097 -0.7019800926
