2

Li -2.350000000000001 0.0 0.0
Br 4.5304909852 0.0 0.0
2

Li -0.9000000000000002 0.0 0.0
Br 3.0804909852 0.0 0.0
2

Li -2.55 0.0 0.0
Br 4.730490985199999 0.0 0.0
2

Li -0.9500000000000001 0.0 0.0
Br 3.1304909852 0.0 0.0
2

Li 0.0 0.0 0.0
Br 2.1804909851999996 0.0 0.0
2

Li -1.6500000000000001 0.0 0.0
Br 3.8304909852 0.0 0.0
2

Li -1.7999999999999996 0.0 0.0
Br 3.980490985199999 0.0 0.0
2

Li -2.6 0.0 0.0
Br 4.7804909852 0.0 0.0
2

Li 0.14999999999999988 0.0 0.0
Br 2.0304909851999997 0.0 0.0
2

Li -1.7 0.0 0.0
Br 3.8804909852 0.0 0.0
2

Li -0.10000000000000009 0.0 0.0
Br 2.2804909851999997 0.0 0.0
2

Li -0.35000000000000003 0.0 0.0
Br 2.5304909851999997 0.0 0.0
2

Li -1.8999999999999997 0.0 0.0
Br 4.080490985199999 0.0 0.0
2

Li 0.19999999999999993 0.0 0.0
Br 1.9804909851999997 0.0 0.0
2

Li -1.7 0.0 0.0
Br 3.8804909852 0.0 0.0
2

Li -1.7499999999999998 0.0 0.0
Br 3.9304909851999996 0.0 0.0
2

Li -0.14999999999999988 0.0 0.0
Br 2.3304909851999995 0.0 0.0
2

Li -0.14999999999999988 0.0 0.0
Br 2.3304909851999995 0.0 0.0
2

Li -1.95 0.0 0.0
Br 4.1304909852 0.0 0.0
2

Li -1.95 0.0 0.0
Br 4.1304909852 0.0 0.0
2

Li -1.7499999999999998 0.0 0.0
Br 3.9304909851999996 0.0 0.0
2

Li -2.4999999999999996 0.0 0.0
Br 4.6804909852 0.0 0.0
2

Li -0.6499999999999998 0.0 0.0
Br 2.8304909851999995 0.0 0.0
2

Li -1.2 0.0 0.0
Br 3.3804909852 0.0 0.0
2

Li -1.7499999999999998 0.0 0.0
Br 3.9304909851999996 0.0 0.0
2

Li -1.0499999999999996 0.0 0.0
Br 3.2304909851999994 0.0 0.0
2

Li 0.14999999999999988 0.0 0.0
Br 2.0304909851999997 0.0 0.0
2

Li -0.7999999999999997 0.0 0.0
Br 2.9804909851999994 0.0 0.0
2

Li -0.85 0.0 0.0
Br 3.0304909851999997 0.0 0.0
2

Li -1.45 0.0 0.0
Br 3.6304909852 0.0 0.0
2

Li -1.6500000000000001 0.0 0.0
Br 3.8304909852 0.0 0.0
2

Li -0.6 0.0 0.0
Br 2.7804909851999997 0.0 0.0
2

Li -2.1499999999999995 0.0 0.0
Br 4.330490985199999 0.0 0.0
2

Li -1.45 0.0 0.0
Br 3.6304909852 0.0 0.0
2

Li -2.350000000000001 0.0 0.0
Br 4.5304909852 0.0 0.0
2

Li -2.000000000000001 0.0 0.0
Br 4.1804909852000005 0.0 0.0
2

Li -1.4999999999999998 0.0 0.0
Br 3.6804909851999996 0.0 0.0
2

Li -1.2499999999999998 0.0 0.0
Br 3.4304909851999996 0.0 0.0
2

Li 0.0 0.0 0.0
Br 2.1804909851999996 0.0 0.0
2

Li -2.1999999999999997 0.0 0.0
Br 4.3804909852 0.0 0.0
2

Li -1.3999999999999997 0.0 0.0
Br 3.5804909851999995 0.0 0.0
2

Li -2.350000000000001 0.0 0.0
Br 4.5304909852 0.0 0.0
2

Li -2.05 0.0 0.0
Br 4.230490985199999 0.0 0.0
2

Li -1.5999999999999994 0.0 0.0
Br 3.780490985199999 0.0 0.0
2

Li -2.1000000000000005 0.0 0.0
Br 4.2804909852 0.0 0.0
2

Li 0.3 0.0 0.0
Br 1.8804909851999996 0.0 0.0
2

Li -2.4 0.0 0.0
Br 4.5804909852 0.0 0.0
2

Li -0.24999999999999997 0.0 0.0
Br 2.4304909851999996 0.0 0.0
2

Li -2.6 0.0 0.0
Br 4.7804909852 0.0 0.0
2

Li -0.5499999999999997 0.0 0.0
Br 2.7304909851999994 0.0 0.0
5

O 0.38598117 2.7761805852 0.3949202082
H 0.5919629416 3.3104052303 1.1649902194
H 1.1045051636 2.1158690228 0.329123161
Br 2.0217659488 -0.0579815215 0.1110343854
Li -1.2089211361 1.6450690224 0.1219979554
5

O 3.0751758369 -2.1366606084 0.0209592203
H 3.8280854724 -2.7213868176 -0.082241582
H 3.1847525896 -1.3936067085 -0.620423287
Br -0.8561960571 1.4846857669 0.285496426
Li -0.0379925117 -0.751308679 1.275557694
5

O 1.1060595688 -0.3961509421 2.7319308125
H 0.2728120196 -0.8908372934 2.6932546606
H 1.7025141187 -0.84626286 2.1108893496
Br -0.3439452728 -0.9994394008 -1.0028144135
Li -0.2624391268 1.4887826703 -0.3849142282
5

O -1.097643537 -1.5586945927 2.6648560716
H -0.426392983 -1.9641391398 2.0996336444
H -0.7777391243 -0.6460360963 2.7530520054
Br 1.4675976455 0.9612439306 -0.7093814186
Li -1.5557641149 -1.0011747484 -0.5485530266
5

O -3.107333047 -1.1236715841 -2.2880468547
H -3.4276461329 -0.7630568888 -1.4543843443
H -2.4002754672 -1.7450671844 -2.0126516869
Br 1.7128880075 0.3582551205 1.5473223795
Li -0.6486063758 1.0277310996 -1.2902401781
5

O 2.4925496978 -2.2416775898 0.2982574924
H 3.1899434827 -2.8139836933 0.6245132182
H 1.6307344517 -2.6985290147 0.4788757408
Br -1.7603294182 0.6949308581 -0.3509287441
Li 0.6602768308 1.3497528475 -0.2277575596
5

O 1.5182343454 -1.5583163151 -1.6561577815
H 1.5640940997 -0.8174216357 -2.2788742954
H 2.3440730133 -1.514259523 -1.1477064557
Br -1.2381346908 0.8442728957 -0.833870691
Li 0.0173442169 -1.3648575691 -0.4106340738
5

O -1.1209898395 0.2168633134 1.6875950357
H -1.0669197172 1.1274399012 1.9958181388
H -0.2021170201 0.0078943919 1.4254384439
Br 1.6412027401 0.0019504119 -0.0052426286
Li -2.1612822061 -0.0020633693 0.0010821577
5

O -0.0300788563 1.5917478048 2.1209835769
H 0.2852748403 2.1721999349 2.8177674408
H 0.6957513171 1.5275329492 1.4575734391
Br 2.0185419776 0.7512611172 -0.1812933692
Li 0.3748389189 -1.156675366 -0.1922302315
5

O -1.3649375766 -0.0640494648 2.5909200772
H -1.7794932212 -0.5228358649 3.3251245927
H -1.7467194043 -0.4462789451 1.7713982275
Br -1.9490698649 -1.1391634711 -0.4047565883
Li 0.5389676133 -1.2748494103 -0.4863585452
5

O 1.239212422 2.8702202685 0.8286947884
H 2.0971861346 3.1157262685 1.1794489497
H 1.3744998669 2.6778770691 -0.1232217952
Br 0.6297178874 -1.1467836492 -1.4777735493
Li 0.1627062433 1.430453511 1.5834471763
5

O -1.2031897299 -1.1785082501 2.2119883077
H -1.8626066266 -1.1860861131 2.9097666891
H -1.5983503412 -0.677601666 1.4632106312
Br -1.9046135153 0.5173341122 -0.4215059558
Li 0.3533228563 1.3573981959 0.0904128727
5

O -1.0493150968 2.2586797484 0.6575695705
H -1.7246541502 2.1191845441 -0.0106814651
H -1.401556244 1.8773999508 1.4813489867
Br 0.1025961155 -1.0491025872 -0.4800045211
Li 0.6304801157 1.2939994092 0.2805572857
5

O 1.5230559607 2.62561819 -1.6490020028
H 2.0476158452 3.3822052807 -1.9184498044
H 1.1444106794 2.834582725 -0.7574083887
Br -0.3943649426 -0.2906134276 1.2407714624
Li 0.7523505783 -1.1405600248 -0.8767834169
5

O -1.121290116 0.4893549816 -1.1786048798
H -1.571842402 1.2631632953 -1.5304015971
H -0.2320909929 0.8123681287 -0.8973171966
Br 1.779050703 1.4632230551 -0.2001766519
Li -2.1227732962 -0.2147753808 0.428617962
5

O 3.2365029958 -0.5465575835 0.6854291112
H 2.6616927351 -1.3270060249 0.6546985315
H 3.423167031 -0.341827581 -0.2450407116
Br -1.2928064585 -0.52813873 0.6654772371
Li 0.1937795968 1.5803639794 0.3169553724
5

O 0.0376664703 1.0591734588 2.3256574783
H 0.4454686798 1.6447913713 2.9676239037
H 0.624366888 1.0702360525 1.5446767649
Br 1.4675976455 0.9612439306 -0.7093814186
Li -1.5557641149 -1.0011747484 -0.5485530266
5

O 2.2635425499 2.5279598361 2.6074495988
H 3.1958778599 2.7387938439 2.6862555803
H 2.2120713488 1.6263832992 2.2435127228
Br -1.7603294182 0.6949308581 -0.3509287441
Li 0.6602768308 1.3497528475 -0.2277575596
5

O 0.4400207952 -2.9480756155 -0.1303464631
H 0.6552417816 -3.3108057107 -0.9924142832
H 1.0215313902 -2.1702979599 -0.0221509739
Br 2.0217659488 -0.0579815215 0.1110343854
Li -1.2089211361 1.6450690224 0.1219979554
5

O -0.0300788563 1.5917478048 2.1209835769
H 0.2852748403 2.1721999349 2.8177674408
H 0.6957513171 1.5275329492 1.4575734391
Br 2.0185419776 0.7512611172 -0.1812933692
Li 0.3748389189 -1.156675366 -0.1922302315
5

O 2.9714869964 1.6295521068 -0.4982145019
H 2.5441701987 1.5569546811 -1.3654511187
H 2.317436981 2.0792113865 0.0616823488
Br -1.2381346908 0.8442728957 -0.833870691
Li 0.0173442169 -1.3648575691 -0.4106340738
5

O -0.7068764815 -2.1163866171 -1.8787156412
H -1.2766862346 -2.4488916811 -2.5765111858
H -1.1496300638 -1.3133540731 -1.5262745789
Br -1.9046135153 0.5173341122 -0.4215059558
Li 0.3533228563 1.3573981959 0.0904128727
5

O 2.3580330739 1.9252193442 0.4621532035
H 2.6807778297 2.8155265043 0.6205714331
H 1.3865284714 1.997269827 0.3709724095
Br -0.8561960571 1.4846857669 0.285496426
Li -0.0379925117 -0.751308679 1.275557694
5

O -0.9527518358 -1.0132353054 1.7159217731
H -0.31774639 -0.4998420677 2.238774468
H -0.4621624866 -1.7915713326 1.3775578507
Br 1.779050703 1.4632230551 -0.2001766519
Li -2.1227732962 -0.2147753808 0.428617962
5

O -1.7855559407 3.1427222125 -0.7553743698
H -1.7367287704 3.545416252 -1.6252253684
H -2.4634033493 2.4458833326 -0.8158263747
Br 0.494676184 -1.8163569889 0.5911709644
Li -0.1755187964 2.2067806324 -0.0826153125
5

O -1.2428132798 2.1654509262 -0.1489065415
H -1.7369184936 2.7479841821 0.4313386735
H -0.35125162 2.0850168719 0.2496311224
Br 1.7296058325 1.6063390342 1.0645649398
Li -1.8254117463 0.4225521868 -0.8061823352
5

O 0.2555079273 -3.136746353 -0.2061059356
H 0.3824039307 -3.6325826665 -1.0172632006
H -0.6894816309 -3.234892488 0.0374829238
Br 2.0185419776 0.7512611172 -0.1812933692
Li 0.3748389189 -1.156675366 -0.1922302315
5

O -1.2751866916 1.6345490916 -1.8256570307
H -1.3337374404 0.9681924955 -2.5262474947
H -0.3352690586 1.8685775316 -1.7578198706
Br 1.6725132829 0.889705092 1.766226452
Li -1.9760404711 0.9844061201 -0.1065901472
5

O 0.38598117 2.7761805852 0.3949202082
H 0.5919629416 3.3104052303 1.1649902194
H 1.1045051636 2.1158690228 0.329123161
Br 2.0217659488 -0.0579815215 0.1110343854
Li -1.2089211361 1.6450690224 0.1219979554
5

O -0.1674956508 -1.1469668383 1.8349152301
H 0.564152999 -1.5778073358 2.2866707606
H -0.1679398298 -0.2225907126 2.1484797205
Br 2.0185419776 0.7512611172 -0.1812933692
Li 0.3748389189 -1.156675366 -0.1922302315
5

O -2.1310003573 2.035704898 -0.5057958966
H -2.6396830678 1.4969269056 -1.1168494695
H -2.4761894359 1.8292909593 0.3907996389
Br -0.3439452728 -0.9994394008 -1.0028144135
Li -0.2624391268 1.4887826703 -0.3849142282
5

O -0.9567275136 -0.4840956691 -2.5788951598
H -1.7556538703 -0.5104579481 -3.1103929566
H -1.2406091246 -0.5857528385 -1.6475183794
Br -1.2928064585 -0.52813873 0.6654772371
Li 0.1937795968 1.5803639794 0.3169553724
5

O -1.7855559407 3.1427222125 -0.7553743698
H -1.7367287704 3.545416252 -1.6252253684
H -2.4634033493 2.4458833326 -0.8158263747
Br 0.494676184 -1.8163569889 0.5911709644
Li -0.1755187964 2.2067806324 -0.0826153125
5

O 1.3084632682 -0.1636015682 1.6177136651
H 0.8671490259 -0.9557456477 1.9538132773
H 1.4988942723 -0.404325617 0.6938680042
Br 0.6297178874 -1.1467836492 -1.4777735493
Li 0.1627062433 1.430453511 1.5834471763
5

O -1.1268419329 1.0681942146 0.0554101302
H -1.3045059742 1.7934165115 -0.5507444705
H -0.7117525576 0.3688292825 -0.4995588069
Br 0.6297178874 -1.1467836492 -1.4777735493
Li 0.1627062433 1.430453511 1.5834471763
5

O 2.7276703329 0.3688778834 -0.1945130177
H 3.6186308247 0.0284658655 -0.3001817151
H 2.173945125 -0.386849868 0.1102214546
Br 0.494676184 -1.8163569889 0.5911709644
Li -0.1755187964 2.2067806324 -0.0826153125
5

O 0.2555079273 -3.136746353 -0.2061059356
H 0.3824039307 -3.6325826665 -1.0172632006
H -0.6894816309 -3.234892488 0.0374829238
Br 2.0185419776 0.7512611172 -0.1812933692
Li 0.3748389189 -1.156675366 -0.1922302315
5

O 0.1984215204 -1.8571163644 0.117740397
H 0.5545606581 -2.5857255737 -0.3979801302
H 0.8077639481 -1.100420574 -0.0385793491
Br 1.4675976455 0.9612439306 -0.7093814186
Li -1.5557641149 -1.0011747484 -0.5485530266
5

O 1.906846785 2.0418184875 -0.9579421851
H 2.6917210464 2.5341067096 -0.7123793558
H 2.181129533 1.382860105 -1.6319404548
Br 0.1025961155 -1.0491025872 -0.4800045211
Li 0.6304801157 1.2939994092 0.2805572857
5

O -1.8984059955 -3.3760272607 -0.0920366771
H -2.2903732139 -4.2164044895 0.1541672494
H -1.0129042692 -3.3385250729 0.3464278978
Br 1.7296058325 1.6063390342 1.0645649398
Li -1.8254117463 0.4225521868 -0.8061823352
5

O 0.1984215204 -1.8571163644 0.117740397
H 0.5545606581 -2.5857255737 -0.3979801302
H 0.8077639481 -1.100420574 -0.0385793491
Br 1.4675976455 0.9612439306 -0.7093814186
Li -1.5557641149 -1.0011747484 -0.5485530266
5

O -2.6935286697 1.8920902658 -0.2433149609
H -2.9493271066 2.1229175519 -1.1394089072
H -1.8441757294 2.3501790338 -0.0852445544
Br 1.6412027401 0.0019504119 -0.0052426286
Li -2.1612822061 -0.0020633693 0.0010821577
5

O -2.7953673433 -0.3524235013 -1.6992133896
H -3.6333101947 0.0448693373 -1.9484383047
H -2.3831493611 0.2732960418 -1.0761100702
Br -0.8561960571 1.4846857669 0.285496426
Li -0.0379925117 -0.751308679 1.275557694
5

O 1.4969035832 0.2056641969 1.2422072385
H 0.761157347 -0.1832662947 1.7505758356
H 2.0196106202 -0.5583113474 0.9344934469
Br -1.7603294182 0.6949308581 -0.3509287441
Li 0.6602768308 1.3497528475 -0.2277575596
5

O -3.1322330214 -0.5718783687 -1.3184887843
H -2.2623102488 -0.3718657623 -1.6928358597
H -2.9518522608 -1.2651934271 -0.6633275015
Br 2.0217659488 -0.0579815215 0.1110343854
Li -1.2089211361 1.6450690224 0.1219979554
5

O -0.8699667378 2.6692534577 1.7877676609
H -1.4415869852 2.6295313653 1.0065328869
H -1.0828638044 1.8561967523 2.2703815417
Br -1.9490698649 -1.1391634711 -0.4047565883
Li 0.5389676133 -1.2748494103 -0.4863585452
5

O -0.2302051034 -0.2400748217 -1.8223650133
H 0.4608282871 -0.728147592 -1.3423709933
H 0.259434902 0.5278885611 -2.181715943
Br 1.7296058325 1.6063390342 1.0645649398
Li -1.8254117463 0.4225521868 -0.8061823352
5

O -0.8615219295 -0.9555181444 2.2274237522
H -1.3555888595 -0.8250544373 3.0401518559
H -1.3350409549 -0.4526980027 1.526019922
Br -1.7603294182 0.6949308581 -0.3509287441
Li 0.6602768308 1.3497528475 -0.2277575596
5

O -1.0124887774 1.3924786523 3.115576616
H -0.9099502599 1.4515098756 4.0654790567
H -1.6452848607 0.6615976116 2.9249841034
Br 0.6297178874 -1.1467836492 -1.4777735493
Li 0.1627062433 1.430453511 1.5834471763
5

O -1.2428132798 2.1654509262 -0.1489065415
H -1.7369184936 2.7479841821 0.4313386735
H -0.35125162 2.0850168719 0.2496311224
Br 1.7296058325 1.6063390342 1.0645649398
Li -1.8254117463 0.4225521868 -0.8061823352
8

O -1.2418556546 2.1620717332 -1.0901036328
H -2.098044465 2.4435778678 -1.421930096
H -1.3250926422 1.1942548081 -0.9249236387
O 1.3642867932 -0.5401399667 -2.5523245411
H 0.494344542 -0.8586927406 -2.8149998787
H 1.3518633395 0.4167845264 -2.7252938422
Br -1.2417912541 -0.9807773345 -0.3756946717
Li 1.2983959017 -0.7614116094 -0.5802056711
8

O 1.8322968154 1.9502949719 -0.598911998
H 2.0449630735 2.4574485353 -1.3840938878
H 2.2284787133 1.0533047309 -0.7198758742
O -0.6771610349 -1.5314158189 2.0247543944
H -1.340035616 -2.1289485971 2.3773590578
H -0.8760467413 -1.4234880352 1.0683634377
Br -0.9189718167 -0.5936715188 -1.0441020985
Li 0.0443467706 1.5598979747 0.0094902223
8

O 0.8711152568 -0.3723308977 1.4796838751
H 0.8323934739 -0.0797167056 2.3936133747
H -0.0703195842 -0.490372257 1.2024011409
O 0.0885374048 2.2518551523 0.0014168291
H -0.1474386181 3.1792578752 0.0021193375
H -0.743235627 1.7257835436 0.0012220018
Br -1.9251236692 -0.2151931717 -0.0001163519
Li 1.4523238654 0.9003469025 -0.0002935295
8

O 1.4688315697 -1.6434336556 -2.0007187123
H 1.5904532637 -0.6876905015 -2.1318589504
H 1.8174135027 -1.8223575649 -1.1107831465
O -1.3756267318 0.6767870419 -1.9009906544
H -1.3957749988 -0.2564137357 -2.1534216526
H -0.4593225407 0.9643140331 -2.05067123
Br 1.7966139259 1.2755057876 1.1843145834
Li -2.0104157946 1.018873564 -0.0712593523
8

O -1.9550155937 -1.4011267078 0.658468993
H -2.4326118363 -2.2321182345 0.6433164825
H -1.0332977529 -1.6246351808 0.9052031927
O 1.0217264411 -1.3721802529 -1.8824274039
H 1.5128374592 -2.0225116884 -2.3901912303
H 1.080978243 -1.6598110044 -0.9426887964
Br 1.1903033124 -1.9710917504 1.2735354339
Li -2.1490422014 0.2101410653 -0.3907944802
8

O -1.9550155937 -1.4011267078 0.658468993
H -2.4326118363 -2.2321182345 0.6433164825
H -1.0332977529 -1.6246351808 0.9052031927
O -0.7990769856 1.4733058943 0.3610320323
H -0.4699545694 1.3433923577 1.2697142376
H -0.0035148208 1.4244535623 -0.2049801382
Br 1.1903033124 -1.9710917504 1.2735354339
Li -2.1490422014 0.2101410653 -0.3907944802
8

O 1.2552867362 -1.4738782037 1.6574903859
H 1.5860070935 -1.9124261979 2.4413882824
H 0.2950096557 -1.3677445514 1.7456960756
O 1.061489013 -1.5923124113 -1.640943159
H 1.3194095 -2.0777322613 -2.4244314401
H 0.0957773193 -1.507091647 -1.6306404605
Br -1.18393752 -0.1495961329 0.0838671314
Li 1.3578055991 -0.497917267 -0.0483272577
8

O -1.1253259138 -0.221685113 -1.6882352541
H -1.0676076145 -1.1311944917 -1.9988457269
H -0.2066642167 -0.0088282367 -1.4281469353
O -0.149538691 -2.7405497957 -0.4385842467
H 0.3269776383 -3.5696490838 -0.3599154837
H 0.5025526185 -2.0343738216 -0.2543825108
Br 1.6412027401 0.0019504119 -0.0052426286
Li -2.1612822061 -0.0020633693 0.0010821577
8

O 2.2695375539 -0.02376384 -1.3811153891
H 3.0488340675 -0.1074903306 -0.8279341618
H 2.1269125055 0.9324421607 -1.5159794404
O -2.2384520766 1.9744473689 -0.1866891091
H -3.1583412342 2.0409816418 0.0790345498
H -1.8795902832 1.181409999 0.2611962441
Br -0.3943649426 -0.2906134276 1.2407714624
Li 0.7523505783 -1.1405600248 -0.8767834169
8

O 2.674770157 -0.0428092503 -1.2886661232
H 3.044789899 -0.1642766053 -0.4058405595
H 1.9016754277 -0.6311144272 -1.2831242058
O -1.9935378798 2.0419226633 0.1633325243
H -2.22222289 2.5226740748 0.9613195783
H -2.645810813 1.3129389457 0.0833292253
Br -0.2782105541 -1.2083730074 -0.2554247988
Li -0.1988335158 1.3245987802 0.007256418
8

O 0.6432943152 0.4956659678 3.0010797208
H 0.7638021422 0.1067310954 3.8705608061
H 0.4500809409 -0.2452218367 2.3882487078
O 2.1651165066 0.2569563612 -2.1703460725
H 2.9440470044 -0.2918184734 -2.2775096662
H 1.4282943263 -0.2117371899 -2.6234853131
Br 0.1235126939 -1.3916157717 0.4498908622
Li 1.3877922603 0.7148784181 -0.4513385531
8

O -0.0300788563 1.5917478048 2.1209835769
H 0.2852748403 2.1721999349 2.8177674408
H 0.6957513171 1.5275329492 1.4575734391
O -0.9191670947 -0.6986223136 -1.5795139243
H -0.7931874341 0.2010883258 -1.91860677
H -1.863330846 -0.7631777156 -1.3666176745
Br 2.0185419776 0.7512611172 -0.1812933692
Li 0.3748389189 -1.156675366 -0.1922302315
8

O -0.4422937618 2.5731701984 -0.0032741719
H -0.0375638861 3.4432718348 0.0027173806
H 0.2874929164 1.9167857952 -0.0059037804
O -1.8358970461 0.6812166235 -1.5918551002
H -1.2251574558 0.4008384806 -2.2808494232
H -1.4987290389 1.5468820891 -1.3086733464
Br 1.1426610179 -0.2496605105 -0.0147169781
Li -1.3616835586 -0.4184235609 -0.0093145306
8

O -1.0124887774 1.3924786523 3.115576616
H -0.9099502599 1.4515098756 4.0654790567
H -1.6452848607 0.6615976116 2.9249841034
O 1.239212422 2.8702202685 0.8286947884
H 2.0971861346 3.1157262685 1.1794489497
H 1.3744998669 2.6778770691 -0.1232217952
Br 0.6297178874 -1.1467836492 -1.4777735493
Li 0.1627062433 1.430453511 1.5834471763
8

O 1.9352127735 0.9597032121 0.1549235205
H 2.1746924759 1.5419281954 -0.5765247773
H 1.2789937508 1.4800609136 0.6747709463
O 1.3642867932 -0.5401399667 -2.5523245411
H 0.494344542 -0.8586927406 -2.8149998787
H 1.3518633395 0.4167845264 -2.7252938422
Br -1.2417912541 -0.9807773345 -0.3756946717
Li 1.2983959017 -0.7614116094 -0.5802056711
8

O -1.875095691 0.6900627458 1.5507979029
H -1.3107141355 0.4139844547 2.2794531803
H -1.514593592 1.5492783911 1.2758317949
O -1.8358970461 0.6812166235 -1.5918551002
H -1.2251574558 0.4008384806 -2.2808494232
H -1.4987290389 1.5468820891 -1.3086733464
Br 1.1426610179 -0.2496605105 -0.0147169781
Li -1.3616835586 -0.4184235609 -0.0093145306
8

O -1.9550155937 -1.4011267078 0.658468993
H -2.4326118363 -2.2321182345 0.6433164825
H -1.0332977529 -1.6246351808 0.9052031927
O -0.7990769856 1.4733058943 0.3610320323
H -0.4699545694 1.3433923577 1.2697142376
H -0.0035148208 1.4244535623 -0.2049801382
Br 1.1903033124 -1.9710917504 1.2735354339
Li -2.1490422014 0.2101410653 -0.3907944802
8

O 0.8708825825 -0.3702075136 -1.4813349923
H 0.8320421564 -0.0761331768 -2.3947900783
H -0.0704915236 -0.4886701933 -1.2042009008
O 2.9397219766 -1.8449610312 0.0005218184
H 2.3408464033 -1.7779559599 -0.7555469537
H 2.3368865721 -1.7744574027 0.753243795
Br -1.9251236692 -0.2151931717 -0.0001163519
Li 1.4523238654 0.9003469025 -0.0002935295
8

O -2.6975159035 -1.8928106676 0.2412123221
H -2.9505388465 -2.1283752233 1.1369329955
H -1.8469152685 -2.3478828597 0.080896647
O -0.149538691 -2.7405497957 -0.4385842467
H 0.3269776383 -3.5696490838 -0.3599154837
H 0.5025526185 -2.0343738216 -0.2543825108
Br 1.6412027401 0.0019504119 -0.0052426286
Li -2.1612822061 -0.0020633693 0.0010821577
8

O 2.2623192686 -0.6459710955 1.671120054
H 2.5075182805 -1.2381203793 2.3858708649
H 1.4810947679 -1.0465817259 1.2376700409
O 0.9224580006 1.775923295 1.5828304489
H 1.5375412397 2.4790566309 1.3588305927
H 1.4710625941 1.0051900749 1.8197287395
Br -0.2782105541 -1.2083730074 -0.2554247988
Li -0.1988335158 1.3245987802 0.007256418
8

O 1.9719784177 -2.3539605709 1.8224017044
H 1.1794104686 -2.7102384686 1.3899010118
H 1.672301823 -1.5394850791 2.2577721956
O -0.3131367083 -2.9277578104 0.2044100656
H -0.9508774108 -3.6450841143 0.201924667
H -0.8223813991 -2.1044956913 0.3571102303
Br -1.4381497453 0.0960260219 0.4795790731
Li 0.1540630211 0.3581060135 -1.5763670351
8

O 1.9719784177 -2.3539605709 1.8224017044
H 1.1794104686 -2.7102384686 1.3899010118
H 1.672301823 -1.5394850791 2.2577721956
O -0.3131367083 -2.9277578104 0.2044100656
H -0.9508774108 -3.6450841143 0.201924667
H -0.8223813991 -2.1044956913 0.3571102303
Br -1.4381497453 0.0960260219 0.4795790731
Li 0.1540630211 0.3581060135 -1.5763670351
8

O 0.8708825825 -0.3702075136 -1.4813349923
H 0.8320421564 -0.0761331768 -2.3947900783
H -0.0704915236 -0.4886701933 -1.2042009008
O 3.3706615431 0.814058589 -0.0004892091
H 4.2198706281 1.2538129081 0.0019774627
H 3.5136440057 -0.1577541754 -0.0002253737
Br -1.9251236692 -0.2151931717 -0.0001163519
Li 1.4523238654 0.9003469025 -0.0002935295
8

O 1.8174512465 1.3560360633 -1.2361876556
H 1.7103865894 1.9424150596 -1.9888117431
H 1.9268918989 0.4410483212 -1.6042864818
O 1.194594838 0.1666883071 1.5105570303
H 0.464876938 -0.2174829216 2.0242012649
H 1.7210031536 -0.603323707 1.2230718818
Br -1.9046135153 0.5173341122 -0.4215059558
Li 0.3533228563 1.3573981959 0.0904128727
8

O -0.0300788563 1.5917478048 2.1209835769
H 0.2852748403 2.1721999349 2.8177674408
H 0.6957513171 1.5275329492 1.4575734391
O -0.1674956508 -1.1469668383 1.8349152301
H 0.564152999 -1.5778073358 2.2866707606
H -0.1679398298 -0.2225907126 2.1484797205
Br 2.0185419776 0.7512611172 -0.1812933692
Li 0.3748389189 -1.156675366 -0.1922302315
8

O -1.0303317809 0.511447278 1.9614464526
H -1.704936748 1.0437522079 2.3903434556
H -1.4741958295 -0.2993851073 1.6417534744
O 1.3867269508 2.3530876254 1.2006024526
H 2.0950808671 2.7438932976 0.6849423553
H 1.7858384977 1.5977856861 1.6858311161
Br 0.7891059706 -0.6700978963 -0.813612703
Li -0.0909039439 1.3750304101 0.3794120756
8

O -2.2637008819 1.8479945317 0.3018379337
H -1.6365418603 1.8562908942 1.0407294671
H -1.7277663233 2.1003273071 -0.4668476668
O 0.2555079273 -3.136746353 -0.2061059356
H 0.3824039307 -3.6325826665 -1.0172632006
H -0.6894816309 -3.234892488 0.0374829238
Br 2.0185419776 0.7512611172 -0.1812933692
Li 0.3748389189 -1.156675366 -0.1922302315
8

O 1.8322968154 1.9502949719 -0.598911998
H 2.0449630735 2.4574485353 -1.3840938878
H 2.2284787133 1.0533047309 -0.7198758742
O -0.6771610349 -1.5314158189 2.0247543944
H -1.340035616 -2.1289485971 2.3773590578
H -0.8760467413 -1.4234880352 1.0683634377
Br -0.9189718167 -0.5936715188 -1.0441020985
Li 0.0443467706 1.5598979747 0.0094902223
8

O 2.2695375539 -0.02376384 -1.3811153891
H 3.0488340675 -0.1074903306 -0.8279341618
H 2.1269125055 0.9324421607 -1.5159794404
O -2.2384520766 1.9744473689 -0.1866891091
H -3.1583412342 2.0409816418 0.0790345498
H -1.8795902832 1.181409999 0.2611962441
Br -0.3943649426 -0.2906134276 1.2407714624
Li 0.7523505783 -1.1405600248 -0.8767834169
8

O -2.6975159035 -1.8928106676 0.2412123221
H -2.9505388465 -2.1283752233 1.1369329955
H -1.8469152685 -2.3478828597 0.080896647
O -0.149538691 -2.7405497957 -0.4385842467
H 0.3269776383 -3.5696490838 -0.3599154837
H 0.5025526185 -2.0343738216 -0.2543825108
Br 1.6412027401 0.0019504119 -0.0052426286
Li -2.1612822061 -0.0020633693 0.0010821577
8

O -1.1253259138 -0.221685113 -1.6882352541
H -1.0676076145 -1.1311944917 -1.9988457269
H -0.2066642167 -0.0088282367 -1.4281469353
O -0.149538691 -2.7405497957 -0.4385842467
H 0.3269776383 -3.5696490838 -0.3599154837
H 0.5025526185 -2.0343738216 -0.2543825108
Br 1.6412027401 0.0019504119 -0.0052426286
Li -2.1612822061 -0.0020633693 0.0010821577
8

O -1.2614004624 -2.3635808106 0.0151372372
H -1.638641093 -3.2436315115 0.0176013941
H -0.2959951086 -2.4390220792 0.0163864921
O -1.8358970461 0.6812166235 -1.5918551002
H -1.2251574558 0.4008384806 -2.2808494232
H -1.4987290389 1.5468820891 -1.3086733464
Br 1.1426610179 -0.2496605105 -0.0147169781
Li -1.3616835586 -0.4184235609 -0.0093145306
8

O -2.2384520766 1.9744473689 -0.1866891091
H -3.1583412342 2.0409816418 0.0790345498
H -1.8795902832 1.181409999 0.2611962441
O -0.5075431825 -1.0876175806 -2.3581709082
H -1.363541817 -1.4983200973 -2.220653575
H -0.6979299976 -0.1467599538 -2.5827850736
Br -0.3943649426 -0.2906134276 1.2407714624
Li 0.7523505783 -1.1405600248 -0.8767834169
8

O -1.5086750006 2.5501433898 -0.7086619812
H -2.210918281 2.9890801497 -0.2241145639
H -1.8896994155 1.7376388338 -1.0797411775
O 0.231855762 1.1892554288 1.9241066803
H 1.1355566458 0.9250813139 2.1363436696
H -0.2951883067 0.4140693899 2.1703846814
Br -0.9189718167 -0.5936715188 -1.0441020985
Li 0.0443467706 1.5598979747 0.0094902223
8

O 0.9538722226 -1.4388813057 -0.1581062872
H 0.9373661001 -2.292419141 0.2826432269
H 0.0006850472 -1.1951045916 -0.3054395487
O 2.8745147044 -0.3885375519 -1.8310788593
H 3.2446655464 -0.8303679507 -2.597805774
H 2.1605288465 -0.957458676 -1.4895416165
Br -1.8922721664 -0.1338444056 -0.1872753725
Li 1.4458404463 0.2778158794 0.8762123382
8

O -1.1253259138 -0.221685113 -1.6882352541
H -1.0676076145 -1.1311944917 -1.9988457269
H -0.2066642167 -0.0088282367 -1.4281469353
O -0.149538691 -2.7405497957 -0.4385842467
H 0.3269776383 -3.5696490838 -0.3599154837
H 0.5025526185 -2.0343738216 -0.2543825108
Br 1.6412027401 0.0019504119 -0.0052426286
Li -2.1612822061 -0.0020633693 0.0010821577
8

O -0.0181723277 1.981447243 -1.7491797931
H 0.4324315809 2.6479028128 -2.2727499763
H 0.6148244251 1.6989050812 -1.0541040563
O -0.6940959136 -0.7959966531 -1.9157634229
H -0.5069280934 0.1366474144 -2.1037074915
H -1.6463324471 -0.8284538288 -1.7235164112
Br 1.6710127058 0.5092792851 0.5689297591
Li 0.5384029251 -1.5192540211 -0.6080285274
8

O 0.8708825825 -0.3702075136 -1.4813349923
H 0.8320421564 -0.0761331768 -2.3947900783
H -0.0704915236 -0.4886701933 -1.2042009008
O 2.9397219766 -1.8449610312 0.0005218184
H 2.3408464033 -1.7779559599 -0.7555469537
H 2.3368865721 -1.7744574027 0.753243795
Br -1.9251236692 -0.2151931717 -0.0001163519
Li 1.4523238654 0.9003469025 -0.0002935295
8

O 0.9538722226 -1.4388813057 -0.1581062872
H 0.9373661001 -2.292419141 0.2826432269
H 0.0006850472 -1.1951045916 -0.3054395487
O 2.8745147044 -0.3885375519 -1.8310788593
H 3.2446655464 -0.8303679507 -2.597805774
H 2.1605288465 -0.957458676 -1.4895416165
Br -1.8922721664 -0.1338444056 -0.1872753725
Li 1.4458404463 0.2778158794 0.8762123382
8

O 1.9719784177 -2.3539605709 1.8224017044
H 1.1794104686 -2.7102384686 1.3899010118
H 1.672301823 -1.5394850791 2.2577721956
O -0.3131367083 -2.9277578104 0.2044100656
H -0.9508774108 -3.6450841143 0.201924667
H -0.8223813991 -2.1044956913 0.3571102303
Br -1.4381497453 0.0960260219 0.4795790731
Li 0.1540630211 0.3581060135 -1.5763670351
8

O -1.5086750006 2.5501433898 -0.7086619812
H -2.210918281 2.9890801497 -0.2241145639
H -1.8896994155 1.7376388338 -1.0797411775
O 0.231855762 1.1892554288 1.9241066803
H 1.1355566458 0.9250813139 2.1363436696
H -0.2951883067 0.4140693899 2.1703846814
Br -0.9189718167 -0.5936715188 -1.0441020985
Li 0.0443467706 1.5598979747 0.0094902223
8

O 2.2623192686 -0.6459710955 1.671120054
H 2.5075182805 -1.2381203793 2.3858708649
H 1.4810947679 -1.0465817259 1.2376700409
O 0.9224580006 1.775923295 1.5828304489
H 1.5375412397 2.4790566309 1.3588305927
H 1.4710625941 1.0051900749 1.8197287395
Br -0.2782105541 -1.2083730074 -0.2554247988
Li -0.1988335158 1.3245987802 0.007256418
8

O -0.1479656084 2.7413144354 0.4393939256
H 0.3300361081 3.5708180212 0.3758807862
H 0.504965205 2.0369053254 0.2515353236
O -2.6935286697 1.8920902658 -0.2433149609
H -2.9493271066 2.1229175519 -1.1394089072
H -1.8441757294 2.3501790338 -0.0852445544
Br 1.6412027401 0.0019504119 -0.0052426286
Li -2.1612822061 -0.0020633693 0.0010821577
8

O -1.875095691 0.6900627458 1.5507979029
H -1.3107141355 0.4139844547 2.2794531803
H -1.514593592 1.5492783911 1.2758317949
O -1.8358970461 0.6812166235 -1.5918551002
H -1.2251574558 0.4008384806 -2.2808494232
H -1.4987290389 1.5468820891 -1.3086733464
Br 1.1426610179 -0.2496605105 -0.0147169781
Li -1.3616835586 -0.4184235609 -0.0093145306
8

O 1.99595658 -1.1829296417 -2.0158653765
H 2.3242902571 -1.6405125107 -1.2253878632
H 1.0971656775 -1.5292071387 -2.1437265194
O 3.0106026622 2.4330825056 1.3316390057
H 3.0848251191 2.1598861255 0.4076694735
H 2.6238453378 1.6551638532 1.7573134633
Br -1.9046135153 0.5173341122 -0.4215059558
Li 0.3533228563 1.3573981959 0.0904128727
8

O 1.0217264411 -1.3721802529 -1.8824274039
H 1.5128374592 -2.0225116884 -2.3901912303
H 1.080978243 -1.6598110044 -0.9426887964
O 1.4564758778 1.3506106263 -1.3229374477
H 1.4646283971 0.4238200713 -1.6194441554
H 2.1018340679 1.3850488606 -0.5842732509
Br 1.1903033124 -1.9710917504 1.2735354339
Li -2.1490422014 0.2101410653 -0.3907944802
8

O -0.4919283498 -2.4263544313 1.3517957422
H -0.4806243792 -3.3842975002 1.4154557224
H -0.2356539426 -2.2167746978 0.4310545606
O 1.3221340853 2.043895319 -1.7621851246
H 1.8538665052 2.2810192391 -2.5246343542
H 1.2228866539 1.071126287 -1.7921041122
Br 0.6297178874 -1.1467836492 -1.4777735493
Li 0.1627062433 1.430453511 1.5834471763
8

O 2.674770157 -0.0428092503 -1.2886661232
H 3.044789899 -0.1642766053 -0.4058405595
H 1.9016754277 -0.6311144272 -1.2831242058
O 2.2623192686 -0.6459710955 1.671120054
H 2.5075182805 -1.2381203793 2.3858708649
H 1.4810947679 -1.0465817259 1.2376700409
Br -0.2782105541 -1.2083730074 -0.2554247988
Li -0.1988335158 1.3245987802 0.007256418
8

O -0.1149426247 -0.9990062673 -2.9397356691
H -0.1735278309 -1.4499020164 -2.0845982094
H -0.8265972389 -0.3409586796 -2.9078057089
O 0.6432943152 0.4956659678 3.0010797208
H 0.7638021422 0.1067310954 3.8705608061
H 0.4500809409 -0.2452218367 2.3882487078
Br 0.1235126939 -1.3916157717 0.4498908622
Li 1.3877922603 0.7148784181 -0.4513385531
8

O -1.5548315388 2.2304626881 -0.5724016718
H -1.5345969399 3.0056337141 -1.1356530915
H -1.9758669049 1.5090222928 -1.0943815145
O -1.0303317809 0.511447278 1.9614464526
H -1.704936748 1.0437522079 2.3903434556
H -1.4741958295 -0.2993851073 1.6417534744
Br 0.7891059706 -0.6700978963 -0.813612703
Li -0.0909039439 1.3750304101 0.3794120756
