2

Na 0.29999999999999977 0.0 0.0
Br 2.212557618 0.0 0.0
2

Na 0.24999999999999992 0.0 0.0
Br 2.2625576179999998 0.0 0.0
2

Na 0.20000000000000032 0.0 0.0
Br 2.3125576179999996 0.0 0.0
2

Na 0.10000000000000002 0.0 0.0
Br 2.4125576179999997 0.0 0.0
2

Na 0.04999999999999987 0.0 0.0
Br 2.462557618 0.0 0.0
2

Na 0.0 0.0 0.0
Br 2.5125576179999998 0.0 0.0
2

Na -0.04999999999999959 0.0 0.0
Br 2.562557617999999 0.0 0.0
2

Na -0.20000000000000004 0.0 0.0
Br 2.712557618 0.0 0.0
2

Na -0.29999999999999977 0.0 0.0
Br 2.8125576179999996 0.0 0.0
2

Na -0.4000000000000001 0.0 0.0
Br 2.9125576179999997 0.0 0.0
2

Na -0.45000000000000023 0.0 0.0
Br 2.962557618 0.0 0.0
2

Na -0.6000000000000001 0.0 0.0
Br 3.112557618 0.0 0.0
2

Na -0.7000000000000004 0.0 0.0
Br 3.212557618 0.0 0.0
2

Na -0.7999999999999996 0.0 0.0
Br 3.312557617999999 0.0 0.0
2

Na -0.8500000000000003 0.0 0.0
Br 3.362557618 0.0 0.0
2

Na -0.9000000000000005 0.0 0.0
Br 3.412557618 0.0 0.0
2

Na -0.9500000000000001 0.0 0.0
Br 3.462557618 0.0 0.0
2

Na -1.0000000000000002 0.0 0.0
Br 3.5125576179999998 0.0 0.0
2

Na -1.2000000000000002 0.0 0.0
Br 3.712557618 0.0 0.0
2

Na -1.4500000000000004 0.0 0.0
Br 3.962557618 0.0 0.0
2

Na -1.5 0.0 0.0
Br 4.012557618 0.0 0.0
2

Na -1.5499999999999996 0.0 0.0
Br 4.062557618 0.0 0.0
2

Na -1.7 0.0 0.0
Br 4.212557618 0.0 0.0
2

Na -1.8999999999999995 0.0 0.0
Br 4.412557617999999 0.0 0.0
2

Na -2.000000000000001 0.0 0.0
Br 4.512557618000001 0.0 0.0
2

Na -2.1000000000000005 0.0 0.0
Br 4.612557618 0.0 0.0
2

Na -2.1499999999999995 0.0 0.0
Br 4.662557617999999 0.0 0.0
2

Na -2.2 0.0 0.0
Br 4.712557618 0.0 0.0
2

Na -2.45 0.0 0.0
Br 4.962557618 0.0 0.0
2

Na -2.5 0.0 0.0
Br 5.012557618 0.0 0.0
2

Na -2.5500000000000003 0.0 0.0
Br 5.0625576180000005 0.0 0.0
2

Na -2.600000000000001 0.0 0.0
Br 5.112557618000001 0.0 0.0
2

Na -2.650000000000001 0.0 0.0
Br 5.162557618 0.0 0.0
5

O -1.4148304384 1.2637117366 -1.7074838307
H -1.1003063645 0.4413071146 -2.1150048662
H -2.2739474913 1.037048707 -1.3168309091
Br 1.9739221667 -0.2130899215 -0.000654692
Na 0.0399873891 1.7073821464 0.0029039523
5

O -0.403530014 2.4263869165 1.2890715838
H -0.2817975596 3.2022401579 1.8373266146
H 0.3934213811 1.8740043238 1.3803832721
Br 1.2661873671 -0.2203517867 0.435441056
Na -1.2189955228 0.9227815241 -0.2250900669
5

O -0.3322156703 -1.2261394217 2.6130944774
H -0.7466041813 -0.945903695 3.43120242
H -0.8912517433 -0.8798758176 1.8935013248
Br -1.676669176 -0.0432933368 -0.1872661611
Na 0.4492370158 1.5437661218 -0.6548636066
5

O 2.1924934867 1.7721577049 0.7607393249
H 2.546123109 2.3029169235 1.474743542
H 2.257269293 0.8261088774 1.0453486827
Br -1.676669176 -0.0432933368 -0.1872661611
Na 0.4492370158 1.5437661218 -0.6548636066
5

O 1.7154504178 0.3886454933 -2.1952255195
H 2.6732221473 0.4342485937 -2.1550442638
H 1.4839782158 -0.5415663951 -2.0186537229
Br -1.676669176 -0.0432933368 -0.1872661611
Na 0.4492370158 1.5437661218 -0.6548636066
5

O 0.5703402988 0.7520262659 1.4402678311
H -0.0330067615 0.3177893226 2.0640684373
H 0.1692555114 1.6215023767 1.2807378175
Br -2.5000353737 0.2980565459 -0.4640082503
Na 0.0429717866 -0.8493686179 -0.4570212433
5

O 0.3264630558 -2.5269137328 1.1145048238
H -0.2012743626 -2.2855031709 1.8849726821
H 1.2582479937 -2.5377854903 1.3804349592
Br -2.5000353737 0.2980565459 -0.4640082503
Na 0.0429717866 -0.8493686179 -0.4570212433
5

O 2.9770113253 1.29043784 -1.6169672688
H 3.5157664211 1.7751676165 -2.2458965057
H 2.0556956136 1.5984740909 -1.7455945344
Br -2.5000353737 0.2980565459 -0.4640082503
Na 0.0429717866 -0.8493686179 -0.4570212433
5

O 2.7944105956 0.3298268122 -0.4061197238
H 3.7486809462 0.3175234534 -0.5102829744
H 2.4331987719 -0.2785840325 -1.0944021314
Br 1.1439615583 -1.2048118195 -2.6444293288
Na -0.8552002151 -1.8028290305 -0.9318260046
5

O 1.6880078044 1.1379660192 -1.8010422363
H 0.8037847523 1.0452362535 -2.1767139132
H 2.0655767091 0.2437165623 -1.8365451242
Br -1.5260939139 0.5121197819 -0.5447064132
Na 0.91321994 1.4021866755 0.3785239738
5

O 0.7308229813 2.0129759909 -1.4222738579
H 0.6858227854 1.5746806403 -2.2829519834
H 1.5553533177 1.6637688795 -1.0422042955
Br 1.1439615583 -1.2048118195 -2.6444293288
Na -0.8552002151 -1.8028290305 -0.9318260046
5

O -2.0504190398 1.1233761017 3.3800194811
H -1.2743845966 1.6960489407 3.4617018464
H -2.5357683604 1.4871597359 2.6249078011
Br 1.1439615583 -1.2048118195 -2.6444293288
Na -0.8552002151 -1.8028290305 -0.9318260046
5

O 1.0178997383 0.1501549791 1.7673214668
H 1.7749458408 0.117000197 1.1565381706
H 0.2350316077 0.1707698021 1.184523297
Br 1.1439615583 -1.2048118195 -2.6444293288
Na -0.8552002151 -1.8028290305 -0.9318260046
5

O -0.6590475091 3.6978710777 0.5603397881
H -0.141274543 3.360698586 -0.184259883
H -0.1622631266 3.4603494901 1.3614704225
Br 1.1439615583 -1.2048118195 -2.6444293288
Na -0.8552002151 -1.8028290305 -0.9318260046
5

O 2.5484663415 0.8597549598 -0.9820910451
H 2.2798725195 1.6778123416 -0.5389974972
H 1.7163650793 0.5508809972 -1.3745459275
Br -0.8164748938 0.4360213653 -1.4277901863
Na -0.2539495559 -1.7329154324 0.2698778998
5

O -2.7219638861 0.8601414823 1.1902356401
H -3.5726731899 1.2900589838 1.0758214391
H -2.304429053 0.8308313675 0.3049216874
Br -0.8164748938 0.4360213653 -1.4277901863
Na -0.2539495559 -1.7329154324 0.2698778998
5

O -0.165769987 1.574685115 2.4716680835
H -1.090396171 1.4616423492 2.2096252605
H 0.2045018627 2.1594527303 1.7928803243
Br -0.8164748938 0.4360213653 -1.4277901863
Na -0.2539495559 -1.7329154324 0.2698778998
5

O 2.5422315936 -0.8974511067 -1.4170696662
H 1.7129389513 -0.5257530262 -1.7533998259
H 2.8602062831 -0.2401300113 -0.7782238863
Br -0.6665584687 0.2905285837 -1.492437232
Na -0.1030108987 -1.5788757128 0.6190678895
5

O -2.9114503192 0.8735131442 0.8000505411
H -3.7794421345 1.1631852763 0.5095362748
H -2.3715974293 0.7631928828 -0.010052548
Br -0.6665584687 0.2905285837 -1.492437232
Na -0.1030108987 -1.5788757128 0.6190678895
5

O 3.0492549867 1.1106164495 0.6025082204
H 3.8767125018 1.5385114669 0.8320943107
H 2.4237756309 1.8180733599 0.3505440613
Br -0.6665584687 0.2905285837 -1.492437232
Na -0.1030108987 -1.5788757128 0.6190678895
5

O 1.4550600264 -3.0230412638 -0.1666274471
H 1.8800537967 -3.8796707675 -0.1975602551
H 2.0146529457 -2.3924328473 -0.6709863909
Br -0.6665584687 0.2905285837 -1.492437232
Na -0.1030108987 -1.5788757128 0.6190678895
5

O 0.9628593973 -0.2312465014 2.1450695497
H 1.8111499424 0.1200509641 1.8426561952
H 0.4094442369 0.5567334601 2.3081004838
Br -0.6665584687 0.2905285837 -1.492437232
Na -0.1030108987 -1.5788757128 0.6190678895
5

O 0.3702790479 -0.0989707536 -2.1462438474
H -0.1459634543 0.3651361912 -2.8147668779
H -0.2972537555 -0.3431773636 -1.4749027816
Br -1.9469272606 -0.7095796568 0.1376297372
Na 0.0496893247 1.066426917 1.1984282927
5

O 0.2187325465 -3.0440962021 0.7089188559
H -0.1128334008 -3.8800198625 1.0449050282
H -0.5681552528 -2.4889938464 0.5314666751
Br -1.9469272606 -0.7095796568 0.1376297372
Na 0.0496893247 1.066426917 1.1984282927
5

O 1.7628619283 2.6929784491 1.314984204
H 2.4913030728 2.8496434848 1.9178716041
H 2.1567470636 2.331543937 0.4899037793
Br -1.9469272606 -0.7095796568 0.1376297372
Na 0.0496893247 1.066426917 1.1984282927
5

O 1.9656469262 -2.4180939595 -1.4659022222
H 1.45153339 -1.7622118045 -1.9603262913
H 1.345226799 -2.7905292933 -0.8176387657
Br -1.9469272606 -0.7095796568 0.1376297372
Na 0.0496893247 1.066426917 1.1984282927
5

O -2.2566903698 1.0199692833 1.2198224724
H -2.7692540522 1.3577147376 1.9577874828
H -1.3174956275 1.0331749157 1.5062262611
Br 0.948409568 0.8130335009 1.5880142694
Na 0.4341065919 -1.4625943665 0.1064873192
5

O 2.1715569556 1.8349264941 2.2578259208
H 2.4156784284 2.240817708 3.0899846611
H 2.3541298102 0.8850074032 2.3241741912
Br -1.5260939139 0.5121197819 -0.5447064132
Na 0.91321994 1.4021866755 0.3785239738
5

O 1.0365884896 2.0405221966 -1.3991092216
H 1.6602491886 2.7557153634 -1.5446851495
H 1.1242602394 1.7886654605 -0.4532574779
Br 0.948409568 0.8130335009 1.5880142694
Na 0.4341065919 -1.4625943665 0.1064873192
5

O -2.0256499178 -0.3707973297 -2.7102933718
H -2.596575051 -0.3753966195 -3.4806890472
H -2.0556134937 0.5421855966 -2.3259431475
Br 0.948409568 0.8130335009 1.5880142694
Na 0.4341065919 -1.4625943665 0.1064873192
5

O -1.8651085086 -1.5017407033 -0.0852710093
H -2.1195242471 -1.3060733052 -0.9998216117
H -2.2145820222 -0.7602493704 0.4335439228
Br 0.948409568 0.8130335009 1.5880142694
Na 0.4341065919 -1.4625943665 0.1064873192
5

O 0.4367437777 -0.7058831377 -2.9259932936
H 0.3859140631 -1.6090622585 -2.5895771722
H -0.2949556703 -0.2609549624 -2.4668289062
Br -1.4275721842 0.3182192194 -0.3038779669
Na 1.2839836191 0.7037863336 0.3164306404
5

O -3.1566764664 0.7408110702 -0.2993598133
H -3.1479847683 -0.0046875902 -0.9119315555
H -2.6614499301 0.4039334089 0.4650700351
Br -0.5376282159 -0.592532084 1.3552215222
Na 0.5013697024 1.276293387 -0.4492649596
5

O 0.2300971968 -0.0574863772 -2.4342965357
H -0.0290685416 0.4054077474 -3.2345747517
H -0.4893915921 -0.6918242793 -2.2405032366
Br -0.5376282159 -0.592532084 1.3552215222
Na 0.5013697024 1.276293387 -0.4492649596
5

O 2.7322797131 1.5914048823 -0.6424977032
H 3.5117259562 2.021541682 -0.2910764008
H 2.9965169122 0.6863824332 -0.9301269439
Br -0.5376282159 -0.592532084 1.3552215222
Na 0.5013697024 1.276293387 -0.4492649596
5

O -1.2939713327 2.599908345 -1.0073671756
H -1.5829583531 3.5056768169 -0.8888468173
H -2.0697152862 2.0307385537 -0.8068973834
Br -0.5376282159 -0.592532084 1.3552215222
Na 0.5013697024 1.276293387 -0.4492649596
5

O 1.6418318031 1.1688067313 -2.1554938437
H 1.7442620656 1.6782886919 -2.9626800343
H 0.7111146546 1.2874369537 -1.8750003438
Br -1.3499944358 1.1536100592 -0.8453161955
Na -0.4590393317 -1.4496291055 -0.2423512283
5

O -2.082942102 -2.5018293825 1.0603286387
H -2.9679869639 -2.846269351 0.9300832974
H -2.1762102019 -1.7047946281 1.6262584338
Br -1.3499944358 1.1536100592 -0.8453161955
Na -0.4590393317 -1.4496291055 -0.2423512283
5

O 0.2905227653 1.0647699263 2.3351945311
H 0.774175441 0.3040259501 1.9731436567
H 0.6157855762 1.8208407975 1.8171607795
Br 1.8820914822 -1.2303104004 0.4337374704
Na -0.7180530032 -1.9065682485 0.022606081
5

O 3.3642415895 -0.8532205103 -0.4970344946
H 4.2594687419 -1.1892463743 -0.5677063777
H 2.8107318171 -1.5691303354 -0.0933646095
Br -1.8950420625 -0.0184344661 0.3386536209
Na 0.2000471355 1.4102440538 -0.7472645597
5

O 0.6106659486 -1.9417642928 -1.7893124742
H -0.0759372267 -2.5061094801 -2.1541333218
H 0.5869885755 -1.1248501163 -2.3186042712
Br 0.0301197452 1.4179583175 0.3059718417
Na 0.0022181983 -1.4065981692 0.3943275638
5

O 1.1229228153 -1.8725940106 2.3213800767
H 1.0143512579 -2.4061856239 3.1093485415
H 1.5512382478 -1.0367257515 2.6055767993
Br 0.0301197452 1.4179583175 0.3059718417
Na 0.0022181983 -1.4065981692 0.3943275638
5

O 2.4832369606 -2.2862561382 1.1282534648
H 3.2131079074 -2.8449534553 1.4047145901
H 2.862869102 -1.399292421 0.9547822663
Br 2.8751796003 0.8277742918 0.2922537313
Na 1.1882897288 -0.0063959784 -1.6446153461
5

O -1.7598307248 -1.7761244164 0.1738729841
H -2.5426693874 -1.7183974717 0.7476244192
H -1.0801842928 -1.2374954589 0.6241711353
Br 2.8751796003 0.8277742918 0.2922537313
Na 1.1882897288 -0.0063959784 -1.6446153461
5

O -4.4405775972 0.773417635 -0.5102499743
H -4.0886443093 0.2565507085 -1.2507933148
H -3.8030380451 1.4969394002 -0.3893587654
Br 2.8751796003 0.8277742918 0.2922537313
Na 1.1882897288 -0.0063959784 -1.6446153461
5

O 1.937630472 0.763850981 -2.3077786159
H 2.221625051 0.3994612396 -3.1497474421
H 1.8695963756 0.0048750934 -1.6949063651
Br 1.7904848018 -1.2843606064 0.2790277304
Na -0.7921774724 -2.0586928629 -0.0899963251
5

O 2.1448348641 3.310340004 1.4178671705
H 2.6197272009 3.6331785246 2.1857581434
H 2.7942584883 2.8104660872 0.8767741439
Br 1.7904848018 -1.2843606064 0.2790277304
Na -0.7921774724 -2.0586928629 -0.0899963251
5

O -4.3062014916 -0.6715129828 -1.0224787406
H -5.2255330615 -0.7251317841 -1.2897737589
H -4.1002053638 0.2830966492 -0.871937951
Br 1.7904848018 -1.2843606064 0.2790277304
Na -0.7921774724 -2.0586928629 -0.0899963251
5

O 1.9287159394 0.3981457053 -2.4551048006
H 2.0733601846 -0.0999132858 -3.2631960631
H 1.8719661987 -0.2611929144 -1.7355528047
Br 1.8820914822 -1.2303104004 0.4337374704
Na -0.7180530032 -1.9065682485 0.022606081
5

O -1.4027346952 -0.8376126921 -1.8725740648
H -2.3698987178 -0.7854783715 -1.9132498059
H -1.1044398232 0.0795555141 -1.7554929432
Br 1.8820914822 -1.2303104004 0.4337374704
Na -0.7180530032 -1.9065682485 0.022606081
5

O -4.1320766385 -0.4686295133 -1.1649875859
H -5.0106283642 -0.4184662911 -1.5459350898
H -3.8712004304 0.4484234462 -0.9060230589
Br 1.8820914822 -1.2303104004 0.4337374704
Na -0.7180530032 -1.9065682485 0.022606081
5

O 1.2959808293 1.3127889656 1.2247314656
H 0.4045717591 1.022201656 1.4752395836
H 1.8523009255 0.5208943569 1.3245800377
Br -1.7490438842 0.1886495946 0.4835670304
Na 0.1846968026 1.5684507886 -0.9783688417
5

O -0.8331569719 -2.7129343416 -0.6947668137
H -1.496697449 -3.1993778696 -1.1892960322
H -1.2305042095 -1.8412497932 -0.4889569412
Br -1.7490438842 0.1886495946 0.4835670304
Na 0.1846968026 1.5684507886 -0.9783688417
5

O 2.4023722569 -1.2846026084 1.3585574424
H 3.1223048257 -1.6221575408 1.8957404364
H 1.5718102243 -1.7019047075 1.6981115617
Br -1.7490438842 0.1886495946 0.4835670304
Na 0.1846968026 1.5684507886 -0.9783688417
5

O -0.195917049 -1.2929407091 -2.1343449202
H 0.1623346398 -1.8033133219 -2.8642888755
H 0.5723330228 -1.0496788807 -1.5723964312
Br 1.9739221667 -0.2130899215 -0.000654692
Na 0.0399873891 1.7073821464 0.0029039523
5

O -0.1966740029 -1.3022341136 2.1283886738
H 0.1616120093 -1.815132336 2.8568187853
H 0.571696225 -1.057827658 1.5668488563
Br 1.9739221667 -0.2130899215 -0.000654692
Na 0.0399873891 1.7073821464 0.0029039523
8

O 0.0324477267 -2.8454262152 0.9227119024
H -0.3216134048 -3.3516218864 1.6554277655
H -0.6598955815 -2.8519446268 0.2263368849
O 2.5022385956 0.0382573182 -0.6508801834
H 3.3265247938 0.2313307287 -1.0987296783
H 1.7910204942 0.4755997103 -1.149619945
Br -0.6547833352 0.6451963165 -1.0237593763
Na 0.9565308243 -0.756548057 0.8677664795
8

O -1.7712216043 -1.6756267848 -1.4426114481
H -1.8558312662 -2.6220544561 -1.5826018354
H -1.4262367281 -1.5662410934 -0.5309416386
O -3.1566764664 0.7408110702 -0.2993598133
H -3.1479847683 -0.0046875902 -0.9119315555
H -2.6614499301 0.4039334089 0.4650700351
Br -0.5376282159 -0.592532084 1.3552215222
Na 0.5013697024 1.276293387 -0.4492649596
8

O -1.2939713327 2.599908345 -1.0073671756
H -1.5829583531 3.5056768169 -0.8888468173
H -2.0697152862 2.0307385537 -0.8068973834
O -3.1566764664 0.7408110702 -0.2993598133
H -3.1479847683 -0.0046875902 -0.9119315555
H -2.6614499301 0.4039334089 0.4650700351
Br -0.5376282159 -0.592532084 1.3552215222
Na 0.5013697024 1.276293387 -0.4492649596
8

O 1.8858898552 -2.6674671422 0.4087705701
H 2.3590451881 -3.0934705441 1.1266413083
H 1.1854243935 -2.138339629 0.8303996634
O 2.7322797131 1.5914048823 -0.6424977032
H 3.5117259562 2.021541682 -0.2910764008
H 2.9965169122 0.6863824332 -0.9301269439
Br -0.5376282159 -0.592532084 1.3552215222
Na 0.5013697024 1.276293387 -0.4492649596
8

O 0.2300971968 -0.0574863772 -2.4342965357
H -0.0290685416 0.4054077474 -3.2345747517
H -0.4893915921 -0.6918242793 -2.2405032366
O 2.8879868132 -0.9286657915 -1.5385873926
H 2.0925718352 -0.8575426423 -2.0831420263
H 2.663744329 -1.5884623429 -0.8558318126
Br -0.5376282159 -0.592532084 1.3552215222
Na 0.5013697024 1.276293387 -0.4492649596
8

O 1.8858898552 -2.6674671422 0.4087705701
H 2.3590451881 -3.0934705441 1.1266413083
H 1.1854243935 -2.138339629 0.8303996634
O -1.7712216043 -1.6756267848 -1.4426114481
H -1.8558312662 -2.6220544561 -1.5826018354
H -1.4262367281 -1.5662410934 -0.5309416386
Br -0.5376282159 -0.592532084 1.3552215222
Na 0.5013697024 1.276293387 -0.4492649596
8

O 2.2222702651 0.478658304 -0.4061862977
H 1.4956800259 0.4324059049 -1.0479062933
H 2.3672982819 -0.4371960438 -0.1181344447
O 0.1945946924 -0.681780305 2.3726211
H 0.879258043 -1.282598003 2.0471487765
H -0.6469456378 -1.1117969764 2.1219662798
Br -1.0382673731 0.4750944276 -1.1661727036
Na 0.3490893057 1.2203670743 1.124838245
8

O 2.2222702651 0.478658304 -0.4061862977
H 1.4956800259 0.4324059049 -1.0479062933
H 2.3672982819 -0.4371960438 -0.1181344447
O -0.1878964388 -2.6498791437 -0.9573192228
H -0.2441318534 -3.1125948625 -1.7968673891
H -0.4459149045 -1.7207398075 -1.1482460149
Br -1.0382673731 0.4750944276 -1.1661727036
Na 0.3490893057 1.2203670743 1.124838245
8

O -0.1878964388 -2.6498791437 -0.9573192228
H -0.2441318534 -3.1125948625 -1.7968673891
H -0.4459149045 -1.7207398075 -1.1482460149
O 2.0507417684 2.7756900038 1.0846995701
H 2.313839094 3.6795567126 0.9069348603
H 2.5062058477 2.2079881126 0.4427971674
Br -1.0382673731 0.4750944276 -1.1661727036
Na 0.3490893057 1.2203670743 1.124838245
8

O 2.0036408174 -2.1741148282 0.6195151273
H 2.6211006757 -2.8979995758 0.7428752787
H 1.2947606141 -2.5000254147 0.0262616322
O 2.0507417684 2.7756900038 1.0846995701
H 2.313839094 3.6795567126 0.9069348603
H 2.5062058477 2.2079881126 0.4427971674
Br -1.0382673731 0.4750944276 -1.1661727036
Na 0.3490893057 1.2203670743 1.124838245
8

O 0.6648231436 0.2912720369 1.5686723469
H 1.3360549726 -0.3510460452 1.2801947848
H 0.0497810433 0.3135410725 0.8060386327
O -1.2542310735 0.2251215629 -0.4791316973
H -1.900286992 0.6898145749 0.086986396
H -1.008321712 0.878543005 -1.1781779822
Br 2.1033180842 -1.5439462832 -0.7537507881
Na -0.5826282338 -1.9225519323 -0.7898428152
8

O 2.252294451 1.564982621 -1.8101232184
H 3.0243207295 1.6681661119 -2.3716815653
H 2.2419127672 0.6181160409 -1.5523011412
O 0.6648231436 0.2912720369 1.5686723469
H 1.3360549726 -0.3510460452 1.2801947848
H 0.0497810433 0.3135410725 0.8060386327
Br 2.1033180842 -1.5439462832 -0.7537507881
Na -0.5826282338 -1.9225519323 -0.7898428152
8

O -0.5043603123 2.1274038342 -2.2405746168
H -0.6863395396 2.8972989918 -1.6815253611
H 0.462971363 2.0410441609 -2.2628779299
O 1.5083320702 2.8599776007 0.6499268907
H 1.9256034181 2.5552826107 -0.1723519602
H 1.3590476653 2.0408658651 1.1507965271
Br 2.1033180842 -1.5439462832 -0.7537507881
Na -0.5826282338 -1.9225519323 -0.7898428152
8

O -2.2738271982 -2.8719217414 0.3399750803
H -2.5716342103 -3.7434055602 0.6030764785
H -2.7257858918 -2.231112456 0.9341807503
O 0.6648231436 0.2912720369 1.5686723469
H 1.3360549726 -0.3510460452 1.2801947848
H 0.0497810433 0.3135410725 0.8060386327
Br 2.1033180842 -1.5439462832 -0.7537507881
Na -0.5826282338 -1.9225519323 -0.7898428152
8

O 1.937630472 0.763850981 -2.3077786159
H 2.221625051 0.3994612396 -3.1497474421
H 1.8695963756 0.0048750934 -1.6949063651
O 0.1992835915 1.4378633944 1.2744941133
H 0.7395919349 0.6296251507 1.1963441662
H 0.8353170512 2.1694628792 1.440222502
Br 1.7904848018 -1.2843606064 0.2790277304
Na -0.7921774724 -2.0586928629 -0.0899963251
8

O -1.6484486683 -1.1285498571 -1.986779473
H -2.6140047512 -1.0697578748 -1.9407972926
H -1.3379082006 -0.2091996767 -1.8849919675
O 0.1992835915 1.4378633944 1.2744941133
H 0.7395919349 0.6296251507 1.1963441662
H 0.8353170512 2.1694628792 1.440222502
Br 1.7904848018 -1.2843606064 0.2790277304
Na -0.7921774724 -2.0586928629 -0.0899963251
8

O 3.6638274507 1.6579926516 -0.1366236754
H 3.5235197546 0.7706082005 0.220180732
H 3.2496148059 1.6094529761 -1.010783969
O -2.6457640889 -1.5299798678 1.1349728279
H -2.5841163668 -0.7120202076 1.6548160379
H -3.3706693982 -1.3646960016 0.5100280005
Br 1.7904848018 -1.2843606064 0.2790277304
Na -0.7921774724 -2.0586928629 -0.0899963251
8

O -0.323238471 -2.7528782101 0.9137119328
H -0.9453820645 -3.4468533551 1.1429750032
H -0.8145716079 -2.11192693 0.3597029486
O 1.0055826334 -0.5316178757 2.1965096638
H 0.5773094956 -1.3765580694 1.9961165438
H 1.9449361552 -0.6771995581 2.0019930328
Br -1.4221098202 -0.2893890256 -0.8967504165
Na -0.1202215971 1.2038959194 1.1936766894
8

O -1.9298399127 2.3810044132 1.9544381669
H -2.0514322854 3.2041596239 2.4288692992
H -2.6872205006 2.2959187768 1.3397105328
O -3.7633190546 1.9112831949 -0.0260126106
H -4.5817436611 1.4336622152 0.127786755
H -3.1819540721 1.278247947 -0.483119417
Br -1.4221098202 -0.2893890256 -0.8967504165
Na -0.1202215971 1.2038959194 1.1936766894
8

O 3.5510840254 -1.192414393 1.0692167234
H 4.3550974675 -1.5750438254 1.4255497313
H 3.1287753749 -1.8794407024 0.495835203
O -3.7633190546 1.9112831949 -0.0260126106
H -4.5817436611 1.4336622152 0.127786755
H -3.1819540721 1.278247947 -0.483119417
Br -1.4221098202 -0.2893890256 -0.8967504165
Na -0.1202215971 1.2038959194 1.1936766894
8

O 1.5449999696 2.5726512203 0.4851525331
H 1.6123031146 3.4777952902 0.1804538009
H 2.218495432 2.0544997309 -0.015460514
O 1.458416144 -0.721007514 -2.3739579467
H 1.366842001 -0.7631433784 -3.3288070854
H 0.5653785985 -0.5165053629 -2.0286654415
Br -1.4221098202 -0.2893890256 -0.8967504165
Na -0.1202215971 1.2038959194 1.1936766894
8

O -3.4215988135 0.2721321292 0.0894637209
H -2.7768342487 0.978164589 -0.0478709136
H -3.1185573755 -0.1684621466 0.9096689285
O -2.5661876258 -1.4857663425 -1.7342760238
H -3.2180842924 -1.9109233117 -2.2909567949
H -3.0473248415 -0.8648680309 -1.1355092421
Br -0.1525183833 1.5405016681 -0.2908764688
Na -0.4067193668 -1.1237398426 -1.1888836342
8

O -2.2181587994 -1.0269946804 2.2395208514
H -1.5460307314 -1.5678440283 1.8000094024
H -1.707805136 -0.3361420501 2.6868522889
O -3.4215988135 0.2721321292 0.0894637209
H -2.7768342487 0.978164589 -0.0478709136
H -3.1185573755 -0.1684621466 0.9096689285
Br -0.1525183833 1.5405016681 -0.2908764688
Na -0.4067193668 -1.1237398426 -1.1888836342
8

O -3.4215988135 0.2721321292 0.0894637209
H -2.7768342487 0.978164589 -0.0478709136
H -3.1185573755 -0.1684621466 0.9096689285
O 1.7560772564 -0.7823208919 2.3904919861
H 2.3166184038 -0.2286745046 1.8251956128
H 1.1401916008 -0.1551881026 2.8045165473
Br -0.1525183833 1.5405016681 -0.2908764688
Na -0.4067193668 -1.1237398426 -1.1888836342
8

O -0.4380893523 2.3193535323 -1.2433439042
H -0.3522961122 3.2593330423 -1.4187696943
H 0.2721443038 2.0866381293 -0.5996020302
O -2.2887952751 0.8659503645 0.1996775839
H -2.6475723013 1.3837492096 0.9247010882
H -1.7900728795 1.5000024046 -0.3531673304
Br 1.5419446732 1.010252955 0.9006198006
Na -0.5748097265 -0.7301531488 0.8554514322
8

O -0.4380893523 2.3193535323 -1.2433439042
H -0.3522961122 3.2593330423 -1.4187696943
H 0.2721443038 2.0866381293 -0.5996020302
O 2.7536971914 -0.2894880716 -1.9009108348
H 3.6068675213 0.0780773354 -2.1405408889
H 2.5511417069 0.0682745342 -1.0162723736
Br 1.5419446732 1.010252955 0.9006198006
Na -0.5748097265 -0.7301531488 0.8554514322
8

O -0.4380893523 2.3193535323 -1.2433439042
H -0.3522961122 3.2593330423 -1.4187696943
H 0.2721443038 2.0866381293 -0.5996020302
O -2.1117742827 -2.0318537868 1.9192047961
H -2.4079850361 -2.5875371426 2.6400936501
H -2.7715615606 -2.0970330046 1.1959127972
Br 1.5419446732 1.010252955 0.9006198006
Na -0.5748097265 -0.7301531488 0.8554514322
8

O 2.7536971914 -0.2894880716 -1.9009108348
H 3.6068675213 0.0780773354 -2.1405408889
H 2.5511417069 0.0682745342 -1.0162723736
O -0.6996051813 -1.8440335919 -1.2258608993
H -0.2192216072 -2.6517244624 -1.4219453365
H -0.3983637599 -1.1823141042 -1.9053511547
Br 1.5419446732 1.010252955 0.9006198006
Na -0.5748097265 -0.7301531488 0.8554514322
8

O -2.0256499178 -0.3707973297 -2.7102933718
H -2.596575051 -0.3753966195 -3.4806890472
H -2.0556134937 0.5421855966 -2.3259431475
O 0.7251900865 -0.6592670469 -2.2006026947
H 1.0005968826 0.2681018639 -2.1129764358
H -0.1696111571 -0.6245138495 -2.5804368098
Br 0.948409568 0.8130335009 1.5880142694
Na 0.4341065919 -1.4625943665 0.1064873192
8

O -1.0072582916 0.5092898889 -2.517995752
H -0.1995667752 0.8740910411 -2.889385986
H -0.8372529503 -0.4455267393 -2.4507390841
O -0.403530014 2.4263869165 1.2890715838
H -0.2817975596 3.2022401579 1.8373266146
H 0.3934213811 1.8740043238 1.3803832721
Br 1.2661873671 -0.2203517867 0.435441056
Na -1.2189955228 0.9227815241 -0.2250900669
8

O -1.0072582916 0.5092898889 -2.517995752
H -0.1995667752 0.8740910411 -2.889385986
H -0.8372529503 -0.4455267393 -2.4507390841
O -2.5400788953 -0.964118408 0.1472804929
H -2.5539949811 -1.3252130231 1.0368544397
H -2.0134857603 -1.5928117659 -0.3759072674
Br 1.2661873671 -0.2203517867 0.435441056
Na -1.2189955228 0.9227815241 -0.2250900669
8

O -2.0256499178 -0.3707973297 -2.7102933718
H -2.596575051 -0.3753966195 -3.4806890472
H -2.0556134937 0.5421855966 -2.3259431475
O -1.8458267483 1.9762840411 -1.4582228593
H -0.8984736289 2.1868426158 -1.4673564947
H -2.0657933431 1.8158379723 -0.5260222707
Br 0.948409568 0.8130335009 1.5880142694
Na 0.4341065919 -1.4625943665 0.1064873192
8

O 2.4832369606 -2.2862561382 1.1282534648
H 3.2131079074 -2.8449534553 1.4047145901
H 2.862869102 -1.399292421 0.9547822663
O 0.227963924 -0.4904207681 1.6911915721
H 0.7424962778 -1.2472454606 2.0002377859
H 0.914994429 0.1024639814 1.321148775
Br 2.8751796003 0.8277742918 0.2922537313
Na 1.1882897288 -0.0063959784 -1.6446153461
8

O 0.227963924 -0.4904207681 1.6911915721
H 0.7424962778 -1.2472454606 2.0002377859
H 0.914994429 0.1024639814 1.321148775
O 0.8368568484 -2.2458288549 -1.1711593939
H -0.0435971465 -2.4950324871 -0.866569858
H 1.4296825807 -2.4526796067 -0.4263065177
Br 2.8751796003 0.8277742918 0.2922537313
Na 1.1882897288 -0.0063959784 -1.6446153461
8

O 1.8604253463 0.9596404603 0.7942066176
H 1.4310289831 0.3921711837 1.4560309665
H 2.3449155951 0.3634064287 0.1979815583
O 0.124869724 -0.657235401 2.3818377225
H -0.2594751098 -0.3338378375 3.2007248003
H -0.5667194694 -0.5193827794 1.6906769181
Br -1.8269761352 -0.1285669752 -0.1069107114
Na 0.0418880521 1.7957066224 -0.6185653649
8

O 0.6300050128 -2.3353214927 -0.8585440983
H -0.1741558586 -1.7946958469 -0.7654418826
H 0.7164431728 -2.8017329138 -0.0064530135
O 0.124869724 -0.657235401 2.3818377225
H -0.2594751098 -0.3338378375 3.2007248003
H -0.5667194694 -0.5193827794 1.6906769181
Br -1.8269761352 -0.1285669752 -0.1069107114
Na 0.0418880521 1.7957066224 -0.6185653649
8

O 2.6387173948 -0.7051604047 -1.3214705054
H 3.4368050154 -1.1703990994 -1.5792421398
H 1.9314349565 -1.3929690352 -1.1633175786
O 1.047583972 1.1688389721 -2.6041270745
H 0.4925409594 0.7220302589 -3.2479003542
H 1.7136486712 0.5090937213 -2.3333598602
Br -1.8269761352 -0.1285669752 -0.1069107114
Na 0.0418880521 1.7957066224 -0.6185653649
8

O 0.6300050128 -2.3353214927 -0.8585440983
H -0.1741558586 -1.7946958469 -0.7654418826
H 0.7164431728 -2.8017329138 -0.0064530135
O 1.047583972 1.1688389721 -2.6041270745
H 0.4925409594 0.7220302589 -3.2479003542
H 1.7136486712 0.5090937213 -2.3333598602
Br -1.8269761352 -0.1285669752 -0.1069107114
Na 0.0418880521 1.7957066224 -0.6185653649
8

O 0.124869724 -0.657235401 2.3818377225
H -0.2594751098 -0.3338378375 3.2007248003
H -0.5667194694 -0.5193827794 1.6906769181
O 1.047583972 1.1688389721 -2.6041270745
H 0.4925409594 0.7220302589 -3.2479003542
H 1.7136486712 0.5090937213 -2.3333598602
Br -1.8269761352 -0.1285669752 -0.1069107114
Na 0.0418880521 1.7957066224 -0.6185653649
8

O -0.6468522583 1.0863170088 -1.0462002468
H 0.0703012339 1.1843570388 -1.6914136239
H -0.2607320298 1.3944968953 -0.2017678308
O 0.3291352679 1.4707839672 1.5220956664
H 0.8711782263 0.6650936715 1.4320288875
H 0.9642990102 2.2042393642 1.6815744233
Br 1.9103849922 -1.2089521548 0.3263005997
Na -0.7384146541 -1.2894105467 -0.512977447
8

O 0.3291352679 1.4707839672 1.5220956664
H 0.8711782263 0.6650936715 1.4320288875
H 0.9642990102 2.2042393642 1.6815744233
O -3.3386292056 1.6835348762 -0.4981354148
H -3.1690348997 1.723189528 0.4550739713
H -2.4484109019 1.6296786594 -0.8876449268
Br 1.9103849922 -1.2089521548 0.3263005997
Na -0.7384146541 -1.2894105467 -0.512977447
8

O -1.9786633724 -0.0613310063 2.2827247157
H -1.0546983012 0.1167531377 2.5016196831
H -2.1390392218 0.4983356878 1.5082162086
O -2.082942102 -2.5018293825 1.0603286387
H -2.9679869639 -2.846269351 0.9300832974
H -2.1762102019 -1.7047946281 1.6262584338
Br -1.3499944358 1.1536100592 -0.8453161955
Na -0.4590393317 -1.4496291055 -0.2423512283
8

O -0.403530014 2.4263869165 1.2890715838
H -0.2817975596 3.2022401579 1.8373266146
H 0.3934213811 1.8740043238 1.3803832721
O -2.5400788953 -0.964118408 0.1472804929
H -2.5539949811 -1.3252130231 1.0368544397
H -2.0134857603 -1.5928117659 -0.3759072674
Br 1.2661873671 -0.2203517867 0.435441056
Na -1.2189955228 0.9227815241 -0.2250900669
8

O 0.4653732125 -0.6905221827 2.4736247721
H 0.2165713999 -0.7786109879 3.3965294619
H -0.3625792922 -0.5026762735 1.9808387555
O -0.4302008444 -2.305690633 -1.3821627306
H -1.0073160535 -2.9488967924 -1.8003179068
H -1.0170314041 -1.6954573233 -0.8816280728
Br -1.8950420625 -0.0184344661 0.3386536209
Na 0.2000471355 1.4102440538 -0.7472645597
8

O 1.0784083438 3.4727443465 -0.14702758
H 0.8999686082 4.3450713316 0.2062150911
H 1.6241325944 3.0002020164 0.5008166835
O 1.982596921 1.1337538589 0.9251350381
H 1.5795099787 0.597999765 1.6284595504
H 2.6556914806 0.5622978774 0.5178082887
Br -1.8950420625 -0.0184344661 0.3386536209
Na 0.2000471355 1.4102440538 -0.7472645597
8

O 1.6146264867 -2.5520552172 0.5854135217
H 1.2194664701 -2.0883418665 1.3403862457
H 0.8937277096 -2.6478886363 -0.0594869331
O 3.3642415895 -0.8532205103 -0.4970344946
H 4.2594687419 -1.1892463743 -0.5677063777
H 2.8107318171 -1.5691303354 -0.0933646095
Br -1.8950420625 -0.0184344661 0.3386536209
Na 0.2000471355 1.4102440538 -0.7472645597
8

O 1.0784083438 3.4727443465 -0.14702758
H 0.8999686082 4.3450713316 0.2062150911
H 1.6241325944 3.0002020164 0.5008166835
O -0.4302008444 -2.305690633 -1.3821627306
H -1.0073160535 -2.9488967924 -1.8003179068
H -1.0170314041 -1.6954573233 -0.8816280728
Br -1.8950420625 -0.0184344661 0.3386536209
Na 0.2000471355 1.4102440538 -0.7472645597
8

O -1.3480910295 0.6760201673 -1.8197744871
H -1.3044556878 1.3355305803 -2.5158406711
H -0.8022462004 -0.0870333469 -2.1356499478
O 0.3256384009 -1.3357763194 -2.4173562958
H 0.1034932754 -2.1203941254 -1.9004427232
H 1.0870688131 -0.9668290623 -1.9338883604
Br 2.0371887463 -0.1097970401 0.1607078972
Na -0.4544133182 0.9777446474 0.3907533408
8

O -2.1235379188 2.3802045464 1.0445969161
H -2.4650717876 3.1975495211 1.4071863674
H -2.8794154205 1.8699367539 0.6828382167
O -1.3480910295 0.6760201673 -1.8197744871
H -1.3044556878 1.3355305803 -2.5158406711
H -0.8022462004 -0.0870333469 -2.1356499478
Br 2.0371887463 -0.1097970401 0.1607078972
Na -0.4544133182 0.9777446474 0.3907533408
8

O 0.5760241654 1.2198266254 -1.0002608826
H -0.2763967076 1.4295356367 -1.4098757871
H 0.7669083921 0.3088929553 -1.2987508277
O -0.1650796548 -2.7489351757 0.2109990435
H -0.5359285115 -3.629849887 0.2980465292
H -0.8875660059 -2.1224104466 0.4440246713
Br -2.19895369 -0.3650112639 0.9540373878
Na 0.2909615907 0.839789139 1.3701945992
8

O 3.5390637291 -0.7757825684 -0.7391678918
H 4.3056022587 -1.2893310238 -1.0019218007
H 2.801776972 -1.0545223888 -1.3175561666
O -0.1650796548 -2.7489351757 0.2109990435
H -0.5359285115 -3.629849887 0.2980465292
H -0.8875660059 -2.1224104466 0.4440246713
Br -2.19895369 -0.3650112639 0.9540373878
Na 0.2909615907 0.839789139 1.3701945992
8

O 1.767992401 2.4760989953 1.9476693191
H 2.1050586447 3.0614871964 2.625733556
H 2.4352583845 2.4443214763 1.2281706664
O 3.5390637291 -0.7757825684 -0.7391678918
H 4.3056022587 -1.2893310238 -1.0019218007
H 2.801776972 -1.0545223888 -1.3175561666
Br -2.19895369 -0.3650112639 0.9540373878
Na 0.2909615907 0.839789139 1.3701945992
8

O 1.2594075933 -1.8185412944 -1.5875154491
H 1.2729628525 -1.0104184595 -2.1217529924
H 2.1512463789 -1.877083608 -1.2106078256
O 1.1962318409 0.9277885425 -2.4593163931
H 1.066109011 1.4101001787 -3.2791007679
H 0.4053614455 1.1041373495 -1.9096492221
Br -1.1418862513 1.1873970854 -0.2183234216
Na -0.2719503506 -1.5242867789 0.1353811997
8

O -4.036398435 -0.4484520607 -0.0177751235
H -4.5180445412 -0.1388078481 0.7528969357
H -3.3300297083 0.2064773384 -0.1580668667
O -2.3060842923 -2.5644474568 0.1781393527
H -2.6430144949 -3.3674439631 -0.2216537709
H -3.0288519697 -1.9047478166 0.1278480637
Br -1.1418862513 1.1873970854 -0.2183234216
Na -0.2719503506 -1.5242867789 0.1353811997
8

O 1.1962318409 0.9277885425 -2.4593163931
H 1.066109011 1.4101001787 -3.2791007679
H 0.4053614455 1.1041373495 -1.9096492221
O 1.3903825928 -1.2996523193 1.7414284221
H 1.4444997947 -0.3739278299 2.0211242867
H 2.2492991382 -1.483059332 1.3300013227
Br -1.1418862513 1.1873970854 -0.2183234216
Na -0.2719503506 -1.5242867789 0.1353811997
8

O -0.5243385712 -2.4231562896 -1.318014372
H -1.0328326898 -3.2031229648 -1.551578562
H -1.1366527874 -1.8287394183 -0.8335403851
O 0.2939640498 -0.6673211059 2.4778617603
H -0.034412864 -1.1848090765 3.2175334588
H -0.4889385752 -0.4741358106 1.918206026
Br -2.0527727322 -0.0595142955 0.2877810223
Na -0.1532929985 1.2909343616 -1.1288638138
8

O 1.7945947472 1.9356845499 -0.1956998815
H 2.4756973731 1.3136350796 -0.4954573028
H 1.867000304 1.960010426 0.7762964053
O 0.7082001096 -0.186686756 -2.6512903453
H 0.3014564572 -1.0478328101 -2.471330715
H 1.6458591503 -0.2986918201 -2.4278415485
Br -2.0527727322 -0.0595142955 0.2877810223
Na -0.1532929985 1.2909343616 -1.1288638138
8

O 1.3903825928 -1.2996523193 1.7414284221
H 1.4444997947 -0.3739278299 2.0211242867
H 2.2492991382 -1.483059332 1.3300013227
O 3.1809818296 1.1888729852 -0.3908186988
H 2.6574231692 1.4782789264 0.3731835763
H 2.583488163 1.2530023818 -1.153130641
Br -1.1418862513 1.1873970854 -0.2183234216
Na -0.2719503506 -1.5242867789 0.1353811997
8

O 1.7619864982 -2.0079773211 0.3608845018
H 1.3651106593 -1.6017863933 1.1474248854
H 1.0113146351 -2.3209587337 -0.1694672582
O -0.5243385712 -2.4231562896 -1.318014372
H -1.0328326898 -3.2031229648 -1.551578562
H -1.1366527874 -1.8287394183 -0.8335403851
Br -2.0527727322 -0.0595142955 0.2877810223
Na -0.1532929985 1.2909343616 -1.1288638138
8

O 1.5851082676 -1.2650701495 0.7261778189
H 1.147347266 -1.3394086691 1.584810663
H 1.0219269307 -1.7761251085 0.1232792218
O -0.4844008637 -0.6584169099 2.7180874608
H -1.1040219391 -1.0112207027 3.3605483651
H -1.0115045877 -0.45585393 1.912693414
Br -1.6424722588 0.281470943 -0.1544870066
Na 1.0280747338 1.0240259839 0.1917974866
8

O 1.5851082676 -1.2650701495 0.7261778189
H 1.147347266 -1.3394086691 1.584810663
H 1.0219269307 -1.7761251085 0.1232792218
O 0.0071540874 -2.1233218115 -1.4893285047
H -0.5182893845 -2.8808884306 -1.7555364509
H -0.6314934333 -1.421555812 -1.226564117
Br -1.6424722588 0.281470943 -0.1544870066
Na 1.0280747338 1.0240259839 0.1917974866
8

O 1.5851082676 -1.2650701495 0.7261778189
H 1.147347266 -1.3394086691 1.584810663
H 1.0219269307 -1.7761251085 0.1232792218
O 2.3251311048 1.4102087949 -1.6397433822
H 2.2209765378 1.9864205947 -2.3985162404
H 2.4874988464 0.5093016238 -1.9929332786
Br -1.6424722588 0.281470943 -0.1544870066
Na 1.0280747338 1.0240259839 0.1917974866
8

O -0.4844008637 -0.6584169099 2.7180874608
H -1.1040219391 -1.0112207027 3.3605483651
H -1.0115045877 -0.45585393 1.912693414
O 2.3251311048 1.4102087949 -1.6397433822
H 2.2209765378 1.9864205947 -2.3985162404
H 2.4874988464 0.5093016238 -1.9929332786
Br -1.6424722588 0.281470943 -0.1544870066
Na 1.0280747338 1.0240259839 0.1917974866
8

O -0.7819750825 2.4383950964 1.7318188542
H -1.6986962745 2.5471512868 1.9949244143
H -0.8174600021 2.0682248025 0.8282640978
O 2.5022385956 0.0382573182 -0.6508801834
H 3.3265247938 0.2313307287 -1.0987296783
H 1.7910204942 0.4755997103 -1.149619945
Br -0.6547833352 0.6451963165 -1.0237593763
Na 0.9565308243 -0.756548057 0.8677664795
8

O -1.8324898715 -2.44234794 -1.0144739627
H -1.7698765215 -2.8007065327 -1.9027110523
H -1.6549921299 -1.4872173601 -1.1096757129
O 2.5022385956 0.0382573182 -0.6508801834
H 3.3265247938 0.2313307287 -1.0987296783
H 1.7910204942 0.4755997103 -1.149619945
Br -0.6547833352 0.6451963165 -1.0237593763
Na 0.9565308243 -0.756548057 0.8677664795
