2

Na -1.7999999999999998 0.0 0.0
Br 4.312557618 0.0 0.0
2

Na -1.9500000000000002 0.0 0.0
Br 4.462557618 0.0 0.0
2

Na -1.0999999999999999 0.0 0.0
Br 3.612557618 0.0 0.0
2

Na -0.3499999999999999 0.0 0.0
Br 2.862557618 0.0 0.0
2

Na -2.4000000000000004 0.0 0.0
Br 4.912557618 0.0 0.0
2

Na -1.7500000000000002 0.0 0.0
Br 4.262557618 0.0 0.0
2

Na -1.3000000000000005 0.0 0.0
Br 3.8125576180000005 0.0 0.0
2

Na -1.1500000000000006 0.0 0.0
Br 3.6625576180000006 0.0 0.0
2

Na -0.25000000000000017 0.0 0.0
Br 2.7625576179999998 0.0 0.0
2

Na -1.5999999999999996 0.0 0.0
Br 4.112557617999999 0.0 0.0
2

Na -1.3000000000000005 0.0 0.0
Br 3.8125576180000005 0.0 0.0
2

Na -1.3500000000000008 0.0 0.0
Br 3.8625576180000003 0.0 0.0
2

Na -1.8500000000000005 0.0 0.0
Br 4.362557618 0.0 0.0
2

Na -2.25 0.0 0.0
Br 4.762557618 0.0 0.0
2

Na -0.6499999999999997 0.0 0.0
Br 3.1625576179999997 0.0 0.0
2

Na 0.14999999999999988 0.0 0.0
Br 2.362557618 0.0 0.0
2

Na -2.05 0.0 0.0
Br 4.562557618 0.0 0.0
2

Na -1.0499999999999998 0.0 0.0
Br 3.5625576179999996 0.0 0.0
2

Na -2.2999999999999994 0.0 0.0
Br 4.812557618 0.0 0.0
2

Na -1.9500000000000002 0.0 0.0
Br 4.462557618 0.0 0.0
2

Na -0.49999999999999983 0.0 0.0
Br 3.0125576179999998 0.0 0.0
2

Na -2.2999999999999994 0.0 0.0
Br 4.812557618 0.0 0.0
2

Na -0.6499999999999997 0.0 0.0
Br 3.1625576179999997 0.0 0.0
2

Na -2.35 0.0 0.0
Br 4.862557618 0.0 0.0
2

Na -0.14999999999999988 0.0 0.0
Br 2.6625576179999997 0.0 0.0
2

Na -0.75 0.0 0.0
Br 3.2625576179999998 0.0 0.0
2

Na -2.25 0.0 0.0
Br 4.762557618 0.0 0.0
2

Na -2.2999999999999994 0.0 0.0
Br 4.812557618 0.0 0.0
2

Na -2.7 0.0 0.0
Br 5.212557618 0.0 0.0
2

Na -1.6500000000000004 0.0 0.0
Br 4.162557618 0.0 0.0
2

Na -0.75 0.0 0.0
Br 3.2625576179999998 0.0 0.0
2

Na -1.3999999999999997 0.0 0.0
Br 3.9125576179999992 0.0 0.0
2

Na 0.14999999999999988 0.0 0.0
Br 2.362557618 0.0 0.0
2

Na -1.3999999999999997 0.0 0.0
Br 3.9125576179999992 0.0 0.0
2

Na -2.4000000000000004 0.0 0.0
Br 4.912557618 0.0 0.0
2

Na -1.7500000000000002 0.0 0.0
Br 4.262557618 0.0 0.0
2

Na -1.8500000000000005 0.0 0.0
Br 4.362557618 0.0 0.0
2

Na -1.6500000000000004 0.0 0.0
Br 4.162557618 0.0 0.0
2

Na -0.5499999999999999 0.0 0.0
Br 3.0625576179999996 0.0 0.0
2

Na -1.3999999999999997 0.0 0.0
Br 3.9125576179999992 0.0 0.0
2

Na -0.6499999999999997 0.0 0.0
Br 3.1625576179999997 0.0 0.0
2

Na -0.49999999999999983 0.0 0.0
Br 3.0125576179999998 0.0 0.0
2

Na 0.14999999999999988 0.0 0.0
Br 2.362557618 0.0 0.0
2

Na -1.9500000000000002 0.0 0.0
Br 4.462557618 0.0 0.0
2

Na 0.14999999999999988 0.0 0.0
Br 2.362557618 0.0 0.0
2

Na -2.2999999999999994 0.0 0.0
Br 4.812557618 0.0 0.0
2

Na -1.2499999999999998 0.0 0.0
Br 3.7625576179999998 0.0 0.0
2

Na -0.75 0.0 0.0
Br 3.2625576179999998 0.0 0.0
2

Na -2.2999999999999994 0.0 0.0
Br 4.812557618 0.0 0.0
2

Na -0.1000000000000003 0.0 0.0
Br 2.612557618 0.0 0.0
5

O 0.227963924 -0.4904207681 1.6911915721
H 0.7424962778 -1.2472454606 2.0002377859
H 0.914994429 0.1024639814 1.321148775
Br 2.8751796003 0.8277742918 0.2922537313
Na 1.1882897288 -0.0063959784 -1.6446153461
5

O -2.492117746 0.231796385 -1.5966079156
H -1.8969632488 0.3239599549 -2.3520107392
H -2.0793361118 0.7990584414 -0.9255988663
Br 0.0301197452 1.4179583175 0.3059718417
Na 0.0022181983 -1.4065981692 0.3943275638
5

O -2.3477873719 0.9133748776 2.2471861174
H -2.7122567281 1.2305964516 3.076186268
H -1.3595181957 0.9734855367 2.3307462354
Br 1.8820914822 -1.2303104004 0.4337374704
Na -0.7180530032 -1.9065682485 0.022606081
5

O 1.1880375474 -0.0803837693 -2.1987350963
H 2.0613825346 -0.3345594294 -1.8643119529
H 0.6679016911 -0.8988271464 -2.1793596896
Br -1.8950420625 -0.0184344661 0.3386536209
Na 0.2000471355 1.4102440538 -0.7472645597
5

O 2.5038310998 1.4088320431 -0.9545483649
H 3.0886988582 0.6700555259 -0.7196338293
H 1.762324735 0.9932320417 -1.4266467581
Br -1.9469272606 -0.7095796568 0.1376297372
Na 0.0496893247 1.066426917 1.1984282927
5

O 1.7895046465 -1.862598157 -1.4028044091
H 2.1472701042 -1.7253458766 -0.5113477185
H 0.9187718427 -2.2719070098 -1.2664300052
Br -1.7490438842 0.1886495946 0.4835670304
Na 0.1846968026 1.5684507886 -0.9783688417
5

O 1.5734812129 -2.8853820638 -0.5281801066
H 1.7853809651 -3.1485539921 -1.4255342994
H 2.3566904762 -2.4116441073 -0.1889459447
Br -0.8164748938 0.4360213653 -1.4277901863
Na -0.2539495559 -1.7329154324 0.2698778998
5

O 0.803065625 -1.9746713563 -1.0566688485
H 0.6223049935 -2.8745762961 -1.3376507788
H -0.06177317 -1.5853518826 -0.8036651952
Br -1.676669176 -0.0432933368 -0.1872661611
Na 0.4492370158 1.5437661218 -0.6548636066
5

O -2.2887952751 0.8659503645 0.1996775839
H -2.6475723013 1.3837492096 0.9247010882
H -1.7900728795 1.5000024046 -0.3531673304
Br 1.5419446732 1.010252955 0.9006198006
Na -0.5748097265 -0.7301531488 0.8554514322
5

O -0.9710747548 2.9396352017 0.5230721052
H -1.4010893095 3.7459877368 0.8146939306
H -1.6716702429 2.2923413813 0.2925006378
Br -2.5000353737 0.2980565459 -0.4640082503
Na 0.0429717866 -0.8493686179 -0.4570212433
5

O 1.5208482954 -1.605949984 -1.432390961
H 2.2546265616 -1.68809311 -0.8042082106
H 1.6797173732 -0.7669373527 -1.8914056836
Br -1.3499944358 1.1536100592 -0.8453161955
Na -0.4590393317 -1.4496291055 -0.2423512283
5

O 0.1992835915 1.4378633944 1.2744941133
H 0.7395919349 0.6296251507 1.1963441662
H 0.8353170512 2.1694628792 1.440222502
Br 1.7904848018 -1.2843606064 0.2790277304
Na -0.7921774724 -2.0586928629 -0.0899963251
5

O -2.0359064958 -1.8135807642 1.7784698529
H -1.5862407617 -1.7945600209 2.628474807
H -2.4654793431 -0.9452847484 1.6959859538
Br -0.8164748938 0.4360213653 -1.4277901863
Na -0.2539495559 -1.7329154324 0.2698778998
5

O -0.5271676873 -2.0700423497 -1.4661766376
H -0.2063151231 -2.9284292892 -1.7514344878
H 0.1698361137 -1.6842048659 -0.8855648896
Br 1.2661873671 -0.2203517867 0.435441056
Na -1.2189955228 0.9227815241 -0.2250900669
5

O -2.1117742827 -2.0318537868 1.9192047961
H -2.4079850361 -2.5875371426 2.6400936501
H -2.7715615606 -2.0970330046 1.1959127972
Br 1.5419446732 1.010252955 0.9006198006
Na -0.5748097265 -0.7301531488 0.8554514322
5

O -0.4380893523 2.3193535323 -1.2433439042
H -0.3522961122 3.2593330423 -1.4187696943
H 0.2721443038 2.0866381293 -0.5996020302
Br 1.5419446732 1.010252955 0.9006198006
Na -0.5748097265 -0.7301531488 0.8554514322
5

O 1.5196885425 -1.5778406619 1.0083324072
H 2.3515923778 -2.0446305733 1.1127907868
H 0.9643049021 -2.1254584824 0.4164423183
Br -1.4275721842 0.3182192194 -0.3038779669
Na 1.2839836191 0.7037863336 0.3164306404
5

O 0.4653732125 -0.6905221827 2.4736247721
H 0.2165713999 -0.7786109879 3.3965294619
H -0.3625792922 -0.5026762735 1.9808387555
Br -1.8950420625 -0.0184344661 0.3386536209
Na 0.2000471355 1.4102440538 -0.7472645597
5

O 0.1843254903 0.6176799348 -2.8248025108
H 0.6651462865 1.1822409664 -3.4343062504
H 0.2796031325 1.0257106486 -1.9381541941
Br 0.0301197452 1.4179583175 0.3059718417
Na 0.0022181983 -1.4065981692 0.3943275638
5

O 0.7051216353 -1.6805093984 1.7714926402
H 0.4992470818 -2.4681404351 2.2800455864
H 1.6725503094 -1.6497984708 1.6649215089
Br -1.3499944358 1.1536100592 -0.8453161955
Na -0.4590393317 -1.4496291055 -0.2423512283
5

O 2.4198419806 0.6435782302 -1.6600649121
H 2.9474274019 1.2070567913 -2.2273151295
H 1.804402507 0.148460368 -2.246466439
Br -1.4275721842 0.3182192194 -0.3038779669
Na 1.2839836191 0.7037863336 0.3164306404
5

O 0.8368568484 -2.2458288549 -1.1711593939
H -0.0435971465 -2.4950324871 -0.866569858
H 1.4296825807 -2.4526796067 -0.4263065177
Br 2.8751796003 0.8277742918 0.2922537313
Na 1.1882897288 -0.0063959784 -1.6446153461
5

O -0.1328433225 -2.4133093697 -1.405822286
H -0.3375000541 -2.7115744411 -0.5096085225
H -0.6432571721 -1.5865234995 -1.4732823704
Br -1.5260939139 0.5121197819 -0.5447064132
Na 0.91321994 1.4021866755 0.3785239738
5

O -0.6996051813 -1.8440335919 -1.2258608993
H -0.2192216072 -2.6517244624 -1.4219453365
H -0.3983637599 -1.1823141042 -1.9053511547
Br 1.5419446732 1.010252955 0.9006198006
Na -0.5748097265 -0.7301531488 0.8554514322
5

O -1.9975106595 -1.987871591 -0.0041439482
H -1.4134670341 -1.9410107164 0.7697108697
H -1.4132226029 -1.9369464189 -0.7777627229
Br 1.9739221667 -0.2130899215 -0.000654692
Na 0.0399873891 1.7073821464 0.0029039523
5

O 1.5135509421 1.6360601918 2.3954600721
H 1.4799023304 2.4934491002 2.8212986446
H 0.8058452192 1.0862496582 2.7956690923
Br -1.4275721842 0.3182192194 -0.3038779669
Na 1.2839836191 0.7037863336 0.3164306404
5

O -1.4143599469 1.2567183754 1.7126722481
H -1.1000424122 0.4326793025 2.1170341023
H -2.2733870543 1.0311394165 1.3212453264
Br 1.9739221667 -0.2130899215 -0.000654692
Na 0.0399873891 1.7073821464 0.0029039523
5

O -0.3495073564 -0.2723154155 2.89251274
H 0.2041781797 -0.9787630927 2.5328582636
H -0.9927116129 -0.1033833404 2.1859241421
Br -1.4275721842 0.3182192194 -0.3038779669
Na 1.2839836191 0.7037863336 0.3164306404
5

O -1.9786633724 -0.0613310063 2.2827247157
H -1.0546983012 0.1167531377 2.5016196831
H -2.1390392218 0.4983356878 1.5082162086
Br -1.3499944358 1.1536100592 -0.8453161955
Na -0.4590393317 -1.4496291055 -0.2423512283
5

O -0.1328433225 -2.4133093697 -1.405822286
H -0.3375000541 -2.7115744411 -0.5096085225
H -0.6432571721 -1.5865234995 -1.4732823704
Br -1.5260939139 0.5121197819 -0.5447064132
Na 0.91321994 1.4021866755 0.3785239738
5

O 1.3430097512 0.4983916051 -2.5678743079
H 1.9083390332 0.6643260242 -3.3223592506
H 1.574211027 -0.3987125504 -2.2240135051
Br -1.7490438842 0.1886495946 0.4835670304
Na 0.1846968026 1.5684507886 -0.9783688417
5

O 1.6146264867 -2.5520552172 0.5854135217
H 1.2194664701 -2.0883418665 1.3403862457
H 0.8937277096 -2.6478886363 -0.0594869331
Br -1.8950420625 -0.0184344661 0.3386536209
Na 0.2000471355 1.4102440538 -0.7472645597
5

O 0.8368568484 -2.2458288549 -1.1711593939
H -0.0435971465 -2.4950324871 -0.866569858
H 1.4296825807 -2.4526796067 -0.4263065177
Br 2.8751796003 0.8277742918 0.2922537313
Na 1.1882897288 -0.0063959784 -1.6446153461
5

O -0.6898844757 1.462514002 -1.3946492249
H 0.113966152 1.4901769112 -1.9353860155
H -0.3609779606 1.5070555316 -0.4755121451
Br 1.7904848018 -1.2843606064 0.2790277304
Na -0.7921774724 -2.0586928629 -0.0899963251
5

O 1.8350923153 -0.6773438411 1.269478907
H 2.2386175951 -1.0972823462 0.4918985202
H 1.0511400422 -1.2139057173 1.4800441861
Br -1.5260939139 0.5121197819 -0.5447064132
Na 0.91321994 1.4021866755 0.3785239738
5

O 0.7051216353 -1.6805093984 1.7714926402
H 0.4992470818 -2.4681404351 2.2800455864
H 1.6725503094 -1.6497984708 1.6649215089
Br -1.3499944358 1.1536100592 -0.8453161955
Na -0.4590393317 -1.4496291055 -0.2423512283
5

O 1.7683877461 -2.9105436205 -1.092503029
H 2.2027034925 -3.7128361609 -1.3824543925
H 1.6827342337 -2.3216182237 -1.8578397129
Br 0.948409568 0.8130335009 1.5880142694
Na 0.4341065919 -1.4625943665 0.1064873192
5

O 2.090433759 -0.8404174471 1.3323887571
H 1.8688567347 -1.3764793873 0.5576373241
H 1.3351911797 -0.9801292994 1.9353924331
Br -1.676669176 -0.0432933368 -0.1872661611
Na 0.4492370158 1.5437661218 -0.6548636066
5

O -1.7712216043 -1.6756267848 -1.4426114481
H -1.8558312662 -2.6220544561 -1.5826018354
H -1.4262367281 -1.5662410934 -0.5309416386
Br -0.5376282159 -0.592532084 1.3552215222
Na 0.5013697024 1.276293387 -0.4492649596
5

O 0.3457109579 2.0517396078 -1.8081945605
H -0.4414335536 1.5944687383 -2.1242664675
H 0.0356040213 2.5677265546 -1.0467396469
Br -2.5000353737 0.2980565459 -0.4640082503
Na 0.0429717866 -0.8493686179 -0.4570212433
5

O 2.0758095354 0.6337725104 2.7890713919
H 2.9771844022 0.8900966507 2.5814525485
H 1.5209035305 1.0684219428 2.1154778083
Br 0.0301197452 1.4179583175 0.3059718417
Na 0.0022181983 -1.4065981692 0.3943275638
5

O 2.7536971914 -0.2894880716 -1.9009108348
H 3.6068675213 0.0780773354 -2.1405408889
H 2.5511417069 0.0682745342 -1.0162723736
Br 1.5419446732 1.010252955 0.9006198006
Na -0.5748097265 -0.7301531488 0.8554514322
5

O -1.9786633724 -0.0613310063 2.2827247157
H -1.0546983012 0.1167531377 2.5016196831
H -2.1390392218 0.4983356878 1.5082162086
Br -1.3499944358 1.1536100592 -0.8453161955
Na -0.4590393317 -1.4496291055 -0.2423512283
5

O 0.227963924 -0.4904207681 1.6911915721
H 0.7424962778 -1.2472454606 2.0002377859
H 0.914994429 0.1024639814 1.321148775
Br 2.8751796003 0.8277742918 0.2922537313
Na 1.1882897288 -0.0063959784 -1.6446153461
5

O 1.7895046465 -1.862598157 -1.4028044091
H 2.1472701042 -1.7253458766 -0.5113477185
H 0.9187718427 -2.2719070098 -1.2664300052
Br -1.7490438842 0.1886495946 0.4835670304
Na 0.1846968026 1.5684507886 -0.9783688417
5

O -0.6829318089 -1.9266629377 1.4477772595
H -1.2593916421 -2.2133133804 2.1596734006
H -1.1375851064 -1.1790410136 1.0054391304
Br -1.5260939139 0.5121197819 -0.5447064132
Na 0.91321994 1.4021866755 0.3785239738
5

O 0.8368568484 -2.2458288549 -1.1711593939
H -0.0435971465 -2.4950324871 -0.866569858
H 1.4296825807 -2.4526796067 -0.4263065177
Br 2.8751796003 0.8277742918 0.2922537313
Na 1.1882897288 -0.0063959784 -1.6446153461
5

O -0.4302008444 -2.305690633 -1.3821627306
H -1.0073160535 -2.9488967924 -1.8003179068
H -1.0170314041 -1.6954573233 -0.8816280728
Br -1.8950420625 -0.0184344661 0.3386536209
Na 0.2000471355 1.4102440538 -0.7472645597
5

O 1.5196885425 -1.5778406619 1.0083324072
H 2.3515923778 -2.0446305733 1.1127907868
H 0.9643049021 -2.1254584824 0.4164423183
Br -1.4275721842 0.3182192194 -0.3038779669
Na 1.2839836191 0.7037863336 0.3164306404
5

O -0.1328433225 -2.4133093697 -1.405822286
H -0.3375000541 -2.7115744411 -0.5096085225
H -0.6432571721 -1.5865234995 -1.4732823704
Br -1.5260939139 0.5121197819 -0.5447064132
Na 0.91321994 1.4021866755 0.3785239738
8

O 2.0036408174 -2.1741148282 0.6195151273
H 2.6211006757 -2.8979995758 0.7428752787
H 1.2947606141 -2.5000254147 0.0262616322
O -0.1878964388 -2.6498791437 -0.9573192228
H -0.2441318534 -3.1125948625 -1.7968673891
H -0.4459149045 -1.7207398075 -1.1482460149
Br -1.0382673731 0.4750944276 -1.1661727036
Na 0.3490893057 1.2203670743 1.124838245
8

O 1.5449999696 2.5726512203 0.4851525331
H 1.6123031146 3.4777952902 0.1804538009
H 2.218495432 2.0544997309 -0.015460514
O 3.2277325646 0.926715749 -0.8079132343
H 2.7061444104 0.4303691573 -1.4580109283
H 3.5118782101 0.2632658156 -0.1577673958
Br -1.4221098202 -0.2893890256 -0.8967504165
Na -0.1202215971 1.2038959194 1.1936766894
8

O -0.7711619708 1.0394548439 -1.9879954811
H -1.5067712761 0.4761487883 -2.2735480513
H -1.1518171243 1.6124424868 -1.2988482543
O 0.8368568484 -2.2458288549 -1.1711593939
H -0.0435971465 -2.4950324871 -0.866569858
H 1.4296825807 -2.4526796067 -0.4263065177
Br 2.8751796003 0.8277742918 0.2922537313
Na 1.1882897288 -0.0063959784 -1.6446153461
8

O -2.2181587994 -1.0269946804 2.2395208514
H -1.5460307314 -1.5678440283 1.8000094024
H -1.707805136 -0.3361420501 2.6868522889
O 2.9229676163 0.8981694234 0.3643508132
H 3.433018024 1.7081744499 0.4432963957
H 2.0137206828 1.1774459779 0.1093769009
Br -0.1525183833 1.5405016681 -0.2908764688
Na -0.4067193668 -1.1237398426 -1.1888836342
8

O 2.5911326898 -1.238833822 -2.2311863113
H 3.0371555 -1.5715497357 -1.445966975
H 1.6879487783 -1.5939351334 -2.1637256106
O 2.3251311048 1.4102087949 -1.6397433822
H 2.2209765378 1.9864205947 -2.3985162404
H 2.4874988464 0.5093016238 -1.9929332786
Br -1.6424722588 0.281470943 -0.1544870066
Na 1.0280747338 1.0240259839 0.1917974866
8

O 0.2282297061 -2.7497146225 0.2227079485
H 0.5778967426 -3.5709890935 0.5766328199
H 0.9521454561 -2.0853481547 0.2937934094
O -3.6614876751 0.4798919371 -0.1397585318
H -3.2911565425 -0.2445275475 0.3832968898
H -3.1158119232 0.470595156 -0.941422436
Br 2.0371887463 -0.1097970401 0.1607078972
Na -0.4544133182 0.9777446474 0.3907533408
8

O 0.2282297061 -2.7497146225 0.2227079485
H 0.5778967426 -3.5709890935 0.5766328199
H 0.9521454561 -2.0853481547 0.2937934094
O 0.3256384009 -1.3357763194 -2.4173562958
H 0.1034932754 -2.1203941254 -1.9004427232
H 1.0870688131 -0.9668290623 -1.9338883604
Br 2.0371887463 -0.1097970401 0.1607078972
Na -0.4544133182 0.9777446474 0.3907533408
8

O 0.7251900865 -0.6592670469 -2.2006026947
H 1.0005968826 0.2681018639 -2.1129764358
H -0.1696111571 -0.6245138495 -2.5804368098
O -1.8458267483 1.9762840411 -1.4582228593
H -0.8984736289 2.1868426158 -1.4673564947
H -2.0657933431 1.8158379723 -0.5260222707
Br 0.948409568 0.8130335009 1.5880142694
Na 0.4341065919 -1.4625943665 0.1064873192
8

O 0.8250859012 0.5053775927 2.7686661185
H 1.482344844 0.8635605419 3.3669252295
H 0.233031517 1.253156238 2.5329184702
O -0.7819750825 2.4383950964 1.7318188542
H -1.6986962745 2.5471512868 1.9949244143
H -0.8174600021 2.0682248025 0.8282640978
Br -0.6547833352 0.6451963165 -1.0237593763
Na 0.9565308243 -0.756548057 0.8677664795
8

O -0.6468522583 1.0863170088 -1.0462002468
H 0.0703012339 1.1843570388 -1.6914136239
H -0.2607320298 1.3944968953 -0.2017678308
O 1.9343917411 0.7895306145 -2.2338859255
H 2.3006088621 0.4590755937 -3.0576679503
H 2.0030322176 0.0538121503 -1.5883395767
Br 1.9103849922 -1.2089521548 0.3263005997
Na -0.7384146541 -1.2894105467 -0.512977447
8

O 2.7536971914 -0.2894880716 -1.9009108348
H 3.6068675213 0.0780773354 -2.1405408889
H 2.5511417069 0.0682745342 -1.0162723736
O -3.4429098037 -1.7623815097 -0.4311114064
H -3.4458943491 -0.7963374302 -0.4067139576
H -2.6477349889 -1.9633300107 -0.9502253487
Br 1.5419446732 1.010252955 0.9006198006
Na -0.5748097265 -0.7301531488 0.8554514322
8

O -0.6468522583 1.0863170088 -1.0462002468
H 0.0703012339 1.1843570388 -1.6914136239
H -0.2607320298 1.3944968953 -0.2017678308
O 1.9343917411 0.7895306145 -2.2338859255
H 2.3006088621 0.4590755937 -3.0576679503
H 2.0030322176 0.0538121503 -1.5883395767
Br 1.9103849922 -1.2089521548 0.3263005997
Na -0.7384146541 -1.2894105467 -0.512977447
8

O -2.5400788953 -0.964118408 0.1472804929
H -2.5539949811 -1.3252130231 1.0368544397
H -2.0134857603 -1.5928117659 -0.3759072674
O -0.5271676873 -2.0700423497 -1.4661766376
H -0.2063151231 -2.9284292892 -1.7514344878
H 0.1698361137 -1.6842048659 -0.8855648896
Br 1.2661873671 -0.2203517867 0.435441056
Na -1.2189955228 0.9227815241 -0.2250900669
8

O -0.6468522583 1.0863170088 -1.0462002468
H 0.0703012339 1.1843570388 -1.6914136239
H -0.2607320298 1.3944968953 -0.2017678308
O 3.6720721641 1.76386327 -0.0532099969
H 3.247790261 1.7705975383 -0.9221507913
H 3.5043505089 0.8635046361 0.2621540452
Br 1.9103849922 -1.2089521548 0.3263005997
Na -0.7384146541 -1.2894105467 -0.512977447
8

O -0.5243385712 -2.4231562896 -1.318014372
H -1.0328326898 -3.2031229648 -1.551578562
H -1.1366527874 -1.8287394183 -0.8335403851
O 0.7082001096 -0.186686756 -2.6512903453
H 0.3014564572 -1.0478328101 -2.471330715
H 1.6458591503 -0.2986918201 -2.4278415485
Br -2.0527727322 -0.0595142955 0.2877810223
Na -0.1532929985 1.2909343616 -1.1288638138
8

O -0.7819750825 2.4383950964 1.7318188542
H -1.6986962745 2.5471512868 1.9949244143
H -0.8174600021 2.0682248025 0.8282640978
O 0.0324477267 -2.8454262152 0.9227119024
H -0.3216134048 -3.3516218864 1.6554277655
H -0.6598955815 -2.8519446268 0.2263368849
Br -0.6547833352 0.6451963165 -1.0237593763
Na 0.9565308243 -0.756548057 0.8677664795
8

O 1.1880375474 -0.0803837693 -2.1987350963
H 2.0613825346 -0.3345594294 -1.8643119529
H 0.6679016911 -0.8988271464 -2.1793596896
O -0.4302008444 -2.305690633 -1.3821627306
H -1.0073160535 -2.9488967924 -1.8003179068
H -1.0170314041 -1.6954573233 -0.8816280728
Br -1.8950420625 -0.0184344661 0.3386536209
Na 0.2000471355 1.4102440538 -0.7472645597
8

O 3.2771987696 -1.3003071412 0.8273183935
H 4.1747176992 -1.5184387551 1.084475597
H 3.2319688963 -0.3122472394 0.7282224429
O 1.6418318031 1.1688067313 -2.1554938437
H 1.7442620656 1.6782886919 -2.9626800343
H 0.7111146546 1.2874369537 -1.8750003438
Br -1.3499944358 1.1536100592 -0.8453161955
Na -0.4590393317 -1.4496291055 -0.2423512283
8

O 1.7619864982 -2.0079773211 0.3608845018
H 1.3651106593 -1.6017863933 1.1474248854
H 1.0113146351 -2.3209587337 -0.1694672582
O 0.2939640498 -0.6673211059 2.4778617603
H -0.034412864 -1.1848090765 3.2175334588
H -0.4889385752 -0.4741358106 1.918206026
Br -2.0527727322 -0.0595142955 0.2877810223
Na -0.1532929985 1.2909343616 -1.1288638138
8

O 0.2282297061 -2.7497146225 0.2227079485
H 0.5778967426 -3.5709890935 0.5766328199
H 0.9521454561 -2.0853481547 0.2937934094
O -2.1235379188 2.3802045464 1.0445969161
H -2.4650717876 3.1975495211 1.4071863674
H -2.8794154205 1.8699367539 0.6828382167
Br 2.0371887463 -0.1097970401 0.1607078972
Na -0.4544133182 0.9777446474 0.3907533408
8

O 1.6418318031 1.1688067313 -2.1554938437
H 1.7442620656 1.6782886919 -2.9626800343
H 0.7111146546 1.2874369537 -1.8750003438
O -2.082942102 -2.5018293825 1.0603286387
H -2.9679869639 -2.846269351 0.9300832974
H -2.1762102019 -1.7047946281 1.6262584338
Br -1.3499944358 1.1536100592 -0.8453161955
Na -0.4590393317 -1.4496291055 -0.2423512283
8

O 1.6418318031 1.1688067313 -2.1554938437
H 1.7442620656 1.6782886919 -2.9626800343
H 0.7111146546 1.2874369537 -1.8750003438
O -2.082942102 -2.5018293825 1.0603286387
H -2.9679869639 -2.846269351 0.9300832974
H -2.1762102019 -1.7047946281 1.6262584338
Br -1.3499944358 1.1536100592 -0.8453161955
Na -0.4590393317 -1.4496291055 -0.2423512283
8

O -0.5043603123 2.1274038342 -2.2405746168
H -0.6863395396 2.8972989918 -1.6815253611
H 0.462971363 2.0410441609 -2.2628779299
O -2.2738271982 -2.8719217414 0.3399750803
H -2.5716342103 -3.7434055602 0.6030764785
H -2.7257858918 -2.231112456 0.9341807503
Br 2.1033180842 -1.5439462832 -0.7537507881
Na -0.5826282338 -1.9225519323 -0.7898428152
8

O -2.183084102 -1.9334027619 -2.1843878559
H -2.1693494223 -2.0860006674 -3.1298893759
H -3.0589973919 -1.5596637772 -1.9715300455
O -2.4697489588 -1.3159187334 1.0011464528
H -3.3093808214 -1.3116510226 0.5218296405
H -2.4959997819 -0.5295867956 1.5701222516
Br 1.9103849922 -1.2089521548 0.3263005997
Na -0.7384146541 -1.2894105467 -0.512977447
8

O 0.0970852742 -2.2050216505 0.8259250448
H 0.2626435581 -3.1434876449 0.9384565501
H 0.753825543 -1.7360575692 1.3999943227
O -2.5661876258 -1.4857663425 -1.7342760238
H -3.2180842924 -1.9109233117 -2.2909567949
H -3.0473248415 -0.8648680309 -1.1355092421
Br -0.1525183833 1.5405016681 -0.2908764688
Na -0.4067193668 -1.1237398426 -1.1888836342
8

O -0.5043603123 2.1274038342 -2.2405746168
H -0.6863395396 2.8972989918 -1.6815253611
H 0.462971363 2.0410441609 -2.2628779299
O -2.2738271982 -2.8719217414 0.3399750803
H -2.5716342103 -3.7434055602 0.6030764785
H -2.7257858918 -2.231112456 0.9341807503
Br 2.1033180842 -1.5439462832 -0.7537507881
Na -0.5826282338 -1.9225519323 -0.7898428152
8

O 0.2282297061 -2.7497146225 0.2227079485
H 0.5778967426 -3.5709890935 0.5766328199
H 0.9521454561 -2.0853481547 0.2937934094
O 0.3256384009 -1.3357763194 -2.4173562958
H 0.1034932754 -2.1203941254 -1.9004427232
H 1.0870688131 -0.9668290623 -1.9338883604
Br 2.0371887463 -0.1097970401 0.1607078972
Na -0.4544133182 0.9777446474 0.3907533408
8

O 0.7251900865 -0.6592670469 -2.2006026947
H 1.0005968826 0.2681018639 -2.1129764358
H -0.1696111571 -0.6245138495 -2.5804368098
O -1.8458267483 1.9762840411 -1.4582228593
H -0.8984736289 2.1868426158 -1.4673564947
H -2.0657933431 1.8158379723 -0.5260222707
Br 0.948409568 0.8130335009 1.5880142694
Na 0.4341065919 -1.4625943665 0.1064873192
8

O -0.6898844757 1.462514002 -1.3946492249
H 0.113966152 1.4901769112 -1.9353860155
H -0.3609779606 1.5070555316 -0.4755121451
O 0.1992835915 1.4378633944 1.2744941133
H 0.7395919349 0.6296251507 1.1963441662
H 0.8353170512 2.1694628792 1.440222502
Br 1.7904848018 -1.2843606064 0.2790277304
Na -0.7921774724 -2.0586928629 -0.0899963251
8

O -2.082942102 -2.5018293825 1.0603286387
H -2.9679869639 -2.846269351 0.9300832974
H -2.1762102019 -1.7047946281 1.6262584338
O 2.8921094458 1.2888969788 0.4442155981
H 2.5982620488 1.3958747956 -0.4739634798
H 2.129331106 1.5630188804 0.9859617664
Br -1.3499944358 1.1536100592 -0.8453161955
Na -0.4590393317 -1.4496291055 -0.2423512283
8

O -0.7711619708 1.0394548439 -1.9879954811
H -1.5067712761 0.4761487883 -2.2735480513
H -1.1518171243 1.6124424868 -1.2988482543
O 0.8368568484 -2.2458288549 -1.1711593939
H -0.0435971465 -2.4950324871 -0.866569858
H 1.4296825807 -2.4526796067 -0.4263065177
Br 2.8751796003 0.8277742918 0.2922537313
Na 1.1882897288 -0.0063959784 -1.6446153461
8

O 0.7251900865 -0.6592670469 -2.2006026947
H 1.0005968826 0.2681018639 -2.1129764358
H -0.1696111571 -0.6245138495 -2.5804368098
O 1.0365884896 2.0405221966 -1.3991092216
H 1.6602491886 2.7557153634 -1.5446851495
H 1.1242602394 1.7886654605 -0.4532574779
Br 0.948409568 0.8130335009 1.5880142694
Na 0.4341065919 -1.4625943665 0.1064873192
8

O 2.7536971914 -0.2894880716 -1.9009108348
H 3.6068675213 0.0780773354 -2.1405408889
H 2.5511417069 0.0682745342 -1.0162723736
O -3.4429098037 -1.7623815097 -0.4311114064
H -3.4458943491 -0.7963374302 -0.4067139576
H -2.6477349889 -1.9633300107 -0.9502253487
Br 1.5419446732 1.010252955 0.9006198006
Na -0.5748097265 -0.7301531488 0.8554514322
8

O -0.6898844757 1.462514002 -1.3946492249
H 0.113966152 1.4901769112 -1.9353860155
H -0.3609779606 1.5070555316 -0.4755121451
O 0.1992835915 1.4378633944 1.2744941133
H 0.7395919349 0.6296251507 1.1963441662
H 0.8353170512 2.1694628792 1.440222502
Br 1.7904848018 -1.2843606064 0.2790277304
Na -0.7921774724 -2.0586928629 -0.0899963251
8

O 1.2594075933 -1.8185412944 -1.5875154491
H 1.2729628525 -1.0104184595 -2.1217529924
H 2.1512463789 -1.877083608 -1.2106078256
O -2.3060842923 -2.5644474568 0.1781393527
H -2.6430144949 -3.3674439631 -0.2216537709
H -3.0288519697 -1.9047478166 0.1278480637
Br -1.1418862513 1.1873970854 -0.2183234216
Na -0.2719503506 -1.5242867789 0.1353811997
8

O 2.4832369606 -2.2862561382 1.1282534648
H 3.2131079074 -2.8449534553 1.4047145901
H 2.862869102 -1.399292421 0.9547822663
O -2.1664806149 2.4065396904 0.0601195059
H -2.088737518 3.3542995605 0.1905313808
H -2.0500657508 1.9895074333 0.9510816506
Br 2.8751796003 0.8277742918 0.2922537313
Na 1.1882897288 -0.0063959784 -1.6446153461
8

O 3.2771987696 -1.3003071412 0.8273183935
H 4.1747176992 -1.5184387551 1.084475597
H 3.2319688963 -0.3122472394 0.7282224429
O 1.6418318031 1.1688067313 -2.1554938437
H 1.7442620656 1.6782886919 -2.9626800343
H 0.7111146546 1.2874369537 -1.8750003438
Br -1.3499944358 1.1536100592 -0.8453161955
Na -0.4590393317 -1.4496291055 -0.2423512283
8

O 0.2282297061 -2.7497146225 0.2227079485
H 0.5778967426 -3.5709890935 0.5766328199
H 0.9521454561 -2.0853481547 0.2937934094
O -2.1235379188 2.3802045464 1.0445969161
H -2.4650717876 3.1975495211 1.4071863674
H -2.8794154205 1.8699367539 0.6828382167
Br 2.0371887463 -0.1097970401 0.1607078972
Na -0.4544133182 0.9777446474 0.3907533408
8

O 2.1448348641 3.310340004 1.4178671705
H 2.6197272009 3.6331785246 2.1857581434
H 2.7942584883 2.8104660872 0.8767741439
O -2.328049803 1.124311197 2.1286903919
H -2.5263604829 1.4945898675 2.991301881
H -1.3733169093 1.2929574608 1.9581897851
Br 1.7904848018 -1.2843606064 0.2790277304
Na -0.7921774724 -2.0586928629 -0.0899963251
8

O 2.5911326898 -1.238833822 -2.2311863113
H 3.0371555 -1.5715497357 -1.445966975
H 1.6879487783 -1.5939351334 -2.1637256106
O 2.3251311048 1.4102087949 -1.6397433822
H 2.2209765378 1.9864205947 -2.3985162404
H 2.4874988464 0.5093016238 -1.9929332786
Br -1.6424722588 0.281470943 -0.1544870066
Na 1.0280747338 1.0240259839 0.1917974866
8

O 1.1880375474 -0.0803837693 -2.1987350963
H 2.0613825346 -0.3345594294 -1.8643119529
H 0.6679016911 -0.8988271464 -2.1793596896
O -0.4302008444 -2.305690633 -1.3821627306
H -1.0073160535 -2.9488967924 -1.8003179068
H -1.0170314041 -1.6954573233 -0.8816280728
Br -1.8950420625 -0.0184344661 0.3386536209
Na 0.2000471355 1.4102440538 -0.7472645597
8

O 3.5390637291 -0.7757825684 -0.7391678918
H 4.3056022587 -1.2893310238 -1.0019218007
H 2.801776972 -1.0545223888 -1.3175561666
O -0.7858015711 -0.8745721083 -3.7785124636
H -0.6859177518 -0.5077710577 -4.6588724231
H -1.3464195042 -0.251404348 -3.28156503
Br -2.19895369 -0.3650112639 0.9540373878
Na 0.2909615907 0.839789139 1.3701945992
8

O -1.7598307248 -1.7761244164 0.1738729841
H -2.5426693874 -1.7183974717 0.7476244192
H -1.0801842928 -1.2374954589 0.6241711353
O 0.8368568484 -2.2458288549 -1.1711593939
H -0.0435971465 -2.4950324871 -0.866569858
H 1.4296825807 -2.4526796067 -0.4263065177
Br 2.8751796003 0.8277742918 0.2922537313
Na 1.1882897288 -0.0063959784 -1.6446153461
8

O 0.4743242107 1.8699308438 1.7668729249
H 0.2963231504 2.7424322304 2.1272586298
H -0.0910227932 1.7958092095 0.9716127817
O -1.9786633724 -0.0613310063 2.2827247157
H -1.0546983012 0.1167531377 2.5016196831
H -2.1390392218 0.4983356878 1.5082162086
Br -1.3499944358 1.1536100592 -0.8453161955
Na -0.4590393317 -1.4496291055 -0.2423512283
8

O 0.5760241654 1.2198266254 -1.0002608826
H -0.2763967076 1.4295356367 -1.4098757871
H 0.7669083921 0.3088929553 -1.2987508277
O -2.0891088794 0.9165153067 -2.0351755397
H -2.8574034874 1.4671826602 -2.2035504681
H -2.257425962 0.4879305743 -1.1665686034
Br -2.19895369 -0.3650112639 0.9540373878
Na 0.2909615907 0.839789139 1.3701945992
8

O -2.2566903698 1.0199692833 1.2198224724
H -2.7692540522 1.3577147376 1.9577874828
H -1.3174956275 1.0331749157 1.5062262611
O -1.8651085086 -1.5017407033 -0.0852710093
H -2.1195242471 -1.3060733052 -0.9998216117
H -2.2145820222 -0.7602493704 0.4335439228
Br 0.948409568 0.8130335009 1.5880142694
Na 0.4341065919 -1.4625943665 0.1064873192
8

O 1.2594075933 -1.8185412944 -1.5875154491
H 1.2729628525 -1.0104184595 -2.1217529924
H 2.1512463789 -1.877083608 -1.2106078256
O -2.3060842923 -2.5644474568 0.1781393527
H -2.6430144949 -3.3674439631 -0.2216537709
H -3.0288519697 -1.9047478166 0.1278480637
Br -1.1418862513 1.1873970854 -0.2183234216
Na -0.2719503506 -1.5242867789 0.1353811997
8

O 2.5911326898 -1.238833822 -2.2311863113
H 3.0371555 -1.5715497357 -1.445966975
H 1.6879487783 -1.5939351334 -2.1637256106
O 2.3251311048 1.4102087949 -1.6397433822
H 2.2209765378 1.9864205947 -2.3985162404
H 2.4874988464 0.5093016238 -1.9929332786
Br -1.6424722588 0.281470943 -0.1544870066
Na 1.0280747338 1.0240259839 0.1917974866
8

O 3.2771987696 -1.3003071412 0.8273183935
H 4.1747176992 -1.5184387551 1.084475597
H 3.2319688963 -0.3122472394 0.7282224429
O 1.6418318031 1.1688067313 -2.1554938437
H 1.7442620656 1.6782886919 -2.9626800343
H 0.7111146546 1.2874369537 -1.8750003438
Br -1.3499944358 1.1536100592 -0.8453161955
Na -0.4590393317 -1.4496291055 -0.2423512283
8

O -1.0072582916 0.5092898889 -2.517995752
H -0.1995667752 0.8740910411 -2.889385986
H -0.8372529503 -0.4455267393 -2.4507390841
O -0.5271676873 -2.0700423497 -1.4661766376
H -0.2063151231 -2.9284292892 -1.7514344878
H 0.1698361137 -1.6842048659 -0.8855648896
Br 1.2661873671 -0.2203517867 0.435441056
Na -1.2189955228 0.9227815241 -0.2250900669
