2

Na 0.29999999999999993 0.0 0.0
Cl 2.0681930534 0.0 0.0
2

Na 0.2500000000000001 0.0 0.0
Cl 2.1181930533999997 0.0 0.0
2

Na 0.0 0.0 0.0
Cl 2.3681930533999997 0.0 0.0
2

Na -0.24999999999999983 0.0 0.0
Cl 2.6181930533999997 0.0 0.0
2

Na -0.29999999999999993 0.0 0.0
Cl 2.6681930533999996 0.0 0.0
2

Na -0.35 0.0 0.0
Cl 2.7181930534 0.0 0.0
2

Na -0.5499999999999997 0.0 0.0
Cl 2.9181930533999996 0.0 0.0
2

Na -0.6499999999999999 0.0 0.0
Cl 3.0181930533999997 0.0 0.0
2

Na -0.75 0.0 0.0
Cl 3.1181930533999997 0.0 0.0
2

Na -0.9000000000000002 0.0 0.0
Cl 3.2681930534 0.0 0.0
2

Na -0.9500000000000003 0.0 0.0
Cl 3.3181930534 0.0 0.0
2

Na -1.05 0.0 0.0
Cl 3.4181930533999996 0.0 0.0
2

Na -1.1500000000000001 0.0 0.0
Cl 3.5181930533999997 0.0 0.0
2

Na -1.2000000000000002 0.0 0.0
Cl 3.5681930534 0.0 0.0
2

Na -1.3500000000000003 0.0 0.0
Cl 3.7181930534000003 0.0 0.0
2

Na -1.4 0.0 0.0
Cl 3.7681930533999997 0.0 0.0
2

Na -1.5 0.0 0.0
Cl 3.8681930533999997 0.0 0.0
2

Na -1.5999999999999996 0.0 0.0
Cl 3.9681930533999994 0.0 0.0
2

Na -1.7000000000000004 0.0 0.0
Cl 4.0681930534 0.0 0.0
2

Na -1.8500000000000005 0.0 0.0
Cl 4.2181930534 0.0 0.0
2

Na -2.05 0.0 0.0
Cl 4.4181930534 0.0 0.0
2

Na -2.2 0.0 0.0
Cl 4.5681930534 0.0 0.0
2

Na -2.25 0.0 0.0
Cl 4.6181930534 0.0 0.0
2

Na -2.3 0.0 0.0
Cl 4.6681930534 0.0 0.0
2

Na -2.35 0.0 0.0
Cl 4.7181930534 0.0 0.0
2

Na -2.6000000000000005 0.0 0.0
Cl 4.9681930534 0.0 0.0
2

Na -2.6500000000000004 0.0 0.0
Cl 5.0181930534 0.0 0.0
5

O -0.8071654912 2.3589353457 -1.0981996376
H -1.3042602047 3.0703464566 -1.5073755896
H -1.469691962 1.6938179627 -0.8019185754
Cl -2.4795554513 0.0115566809 -0.0587693331
Na 0.1469576248 -1.2329147901 -0.1587278784
5

O 0.916651838 0.2080530961 -1.8079062937
H 1.8138413719 0.5068239327 -1.6104582434
H 0.3770877934 1.0135014047 -1.8297519479
Cl -2.4795554513 0.0115566809 -0.0587693331
Na 0.1469576248 -1.2329147901 -0.1587278784
5

O 0.8223531791 1.8575287962 -1.2751262552
H 1.1076632159 1.6414771339 -2.1659908423
H 1.3909555233 1.3306633629 -0.6850008357
Cl 1.4841440485 -0.2284998367 0.9614531314
Na -0.9709693783 0.6049464906 -0.3204488523
5

O -0.6585274391 2.0075530852 1.5704417536
H -0.3730857204 2.9196429551 1.477415974
H 0.1585811825 1.4964737872 1.7088407673
Cl 1.4841440485 -0.2284998367 0.9614531314
Na -0.9709693783 0.6049464906 -0.3204488523
5

O 1.4307774537 -2.2184915195 0.303956013
H 2.236470928 -2.5257392732 -0.1225181587
H 1.0206146888 -1.6265444186 -0.3634328107
Cl 0.1596287632 -0.4094144989 -1.9014023075
Na 0.1331802073 1.4538865534 -0.0023152618
5

O -1.5197118453 2.9920875177 -0.1894231814
H -1.8089380833 3.9008940657 -0.2668829925
H -2.2997720598 2.4506106971 0.0630695454
Cl 0.1596287632 -0.4094144989 -1.9014023075
Na 0.1331802073 1.4538865534 -0.0023152618
5

O -2.7508268794 -1.1325916509 -1.1459014191
H -3.3060830757 -1.4359300238 -1.8676861615
H -1.8884135898 -0.8915709414 -1.5441013835
Cl 0.1596287632 -0.4094144989 -1.9014023075
Na 0.1331802073 1.4538865534 -0.0023152618
5

O -0.7282661591 0.135772513 1.7810123435
H -0.0180471187 0.0318142107 2.428194938
H -0.976968976 -0.7881110832 1.5536872546
Cl 0.1596287632 -0.4094144989 -1.9014023075
Na 0.1331802073 1.4538865534 -0.0023152618
5

O -1.8802514351 0.06552366 0.7272594298
H -2.5511485877 0.2909756234 1.3769895165
H -2.1779791141 -0.7456569751 0.2371631199
Cl 2.3801649709 0.0856701689 -0.5747683404
Na -0.8151859476 1.9795942316 -0.0246211169
5

O -2.3785775063 -2.1692134125 -0.599624424
H -1.7203884244 -2.7849305059 -0.2399907147
H -2.0947597172 -1.992452381 -1.5134793069
Cl 2.3801649709 0.0856701689 -0.5747683404
Na -0.8151859476 1.9795942316 -0.0246211169
5

O -1.0842481511 -1.4226876846 -2.9946444902
H -1.2248359902 -1.6846570223 -3.9067721515
H -0.2439671143 -1.8596892055 -2.6966418868
Cl 2.3801649709 0.0856701689 -0.5747683404
Na -0.8151859476 1.9795942316 -0.0246211169
5

O -0.7223814471 -0.8911986619 1.7491053299
H -1.1705003576 -1.4253566259 1.0723024824
H 0.2193040682 -0.9428444834 1.5148623546
Cl 1.9549488657 0.1617279921 0.4453040907
Na -0.2182611073 1.4683787343 1.1237940606
5

O -0.9471677191 1.3297170181 3.3255830763
H -0.6520644031 1.4413575664 4.2304221741
H -1.0375668464 0.3755266192 3.1715501545
Cl 1.9549488657 0.1617279921 0.4453040907
Na -0.2182611073 1.4683787343 1.1237940606
5

O -1.4462103957 -2.2857169865 -0.6078811432
H -1.9400988783 -3.0989850051 -0.7312276476
H -0.5054155428 -2.4850075052 -0.8384896488
Cl 1.9549488657 0.1617279921 0.4453040907
Na -0.2182611073 1.4683787343 1.1237940606
5

O 0.8930555843 -2.1671927356 -1.8018052871
H 0.6094148929 -2.8842226095 -2.3752446226
H 0.1560764723 -2.0379020594 -1.159462102
Cl -1.2517762203 -1.2385418993 0.216984731
Na -0.3185832408 1.0857739103 -0.7322726135
5

O -1.5020410243 0.1525998549 -2.1595094578
H -1.6395727412 -0.6938740738 -1.7060395272
H -0.5732729051 0.1410410164 -2.4468089225
Cl 1.9549488657 0.1617279921 0.4453040907
Na -0.2182611073 1.4683787343 1.1237940606
5

O 1.3041471089 0.0242439782 -2.5817520596
H 1.8716629099 0.5220653612 -3.1740096525
H 1.6093034426 0.2237978843 -1.6703621291
Cl 1.9549488657 0.1617279921 0.4453040907
Na -0.2182611073 1.4683787343 1.1237940606
5

O 2.4664321748 -1.5658349957 0.6545863559
H 3.077821486 -2.2033262345 1.0227649297
H 2.9948216388 -0.8499641267 0.2410689449
Cl -2.4650069078 0.0606953055 0.231409941
Na 0.3763153687 -0.6797016385 0.3690577586
5

O 3.2585156851 0.6990151109 -0.6027907225
H 2.6510332816 0.5590530706 -1.3434089342
H 2.7475019405 1.2676275692 -0.0083669998
Cl -2.4650069078 0.0606953055 0.231409941
Na 0.3763153687 -0.6797016385 0.3690577586
5

O 0.727649707 0.1814909485 -1.9298672922
H 0.2093617388 -0.5610197534 -2.2628484049
H 0.1415208795 0.9553731593 -1.9422850821
Cl -2.4650069078 0.0606953055 0.231409941
Na 0.3763153687 -0.6797016385 0.3690577586
5

O -1.6542949189 1.3690714189 -0.9009107495
H -1.7145954477 2.088211623 -0.2631164864
H -0.7456110946 1.4401885904 -1.2315776571
Cl 1.4645267199 0.7798131433 -0.5307064263
Na -0.9141146352 -0.6566146213 0.1829725939
5

O -0.0962656085 2.5772700078 1.4412614568
H 0.3863065746 3.2801495881 1.8817591696
H 0.5464381094 2.1368906308 0.8445604869
Cl 1.4645267199 0.7798131433 -0.5307064263
Na -0.9141146352 -0.6566146213 0.1829725939
5

O -1.3059731947 0.257382144 2.2932716124
H -2.0293342756 0.3280207502 2.9177366954
H -0.9191192365 1.1503514706 2.2085496933
Cl 1.4645267199 0.7798131433 -0.5307064263
Na -0.9141146352 -0.6566146213 0.1829725939
5

O -2.0054415514 -0.6362489786 -2.1630354726
H -2.6646280359 -0.6713690883 -2.8602822743
H -2.2621315221 0.1121366868 -1.5688988635
Cl -2.2878524579 1.5674632524 -0.111093906
Na 0.3183868129 1.3488677424 -0.0306537984
5

O 2.6685066941 -1.384612351 -0.9194875802
H 2.0493103226 -0.9039226477 -1.4870498773
H 2.1268860864 -2.0729041215 -0.5029451976
Cl -2.2878524579 1.5674632524 -0.111093906
Na 0.3183868129 1.3488677424 -0.0306537984
5

O 0.3180938783 0.0848832906 -1.6386899335
H -0.0277618945 -0.4077375881 -2.3880073952
H 0.7518421456 -0.5919538202 -1.0717922144
Cl 1.5129823047 -1.8805170442 0.4078924179
Na -1.0959732016 1.3697107455 -0.2799687159
5

O -3.2284994231 0.7903103354 -0.7450657798
H -4.1388052938 1.0636125249 -0.8573798691
H -3.2364761415 -0.1061895711 -0.3341257883
Cl 1.5129823047 -1.8805170442 0.4078924179
Na -1.0959732016 1.3697107455 -0.2799687159
5

O -1.0845125357 2.6506833931 0.7129041586
H -1.5495040372 3.4332208651 1.0103543108
H -0.9754528976 2.0986187248 1.5186235015
Cl -1.2517762203 -1.2385418993 0.216984731
Na -0.3185832408 1.0857739103 -0.7322726135
5

O 2.9232262606 0.6684160817 1.5319555436
H 3.8314483301 0.5587187979 1.8218740675
H 2.6262936123 -0.2171051446 1.2466990319
Cl 1.5129823047 -1.8805170442 0.4078924179
Na -1.0959732016 1.3697107455 -0.2799687159
5

O 2.7138240993 1.2780450913 -1.1500418419
H 3.4268122181 1.7755468026 -1.5598977891
H 1.9199348728 1.8663703945 -1.1437026445
Cl -2.4714989121 -0.142248612 -0.1091374672
Na 0.0067803177 -1.0972141932 0.2238794893
5

O 0.9016588822 -0.8117120909 -1.923351377
H 1.6841450064 -0.2373370896 -1.878608458
H 0.2552412109 -0.3231270032 -2.4614905867
Cl -2.4714989121 -0.142248612 -0.1091374672
Na 0.0067803177 -1.0972141932 0.2238794893
5

O -1.2335741277 0.9223196524 -2.7741977348
H -1.8181712932 1.0613207478 -3.525666728
H -1.794373681 0.5948577963 -2.0447004394
Cl -2.4714989121 -0.142248612 -0.1091374672
Na 0.0067803177 -1.0972141932 0.2238794893
5

O -0.2111367422 0.5386211195 -1.7965918506
H -0.723112531 1.3197796903 -1.5568185616
H 0.7069942949 0.7335625115 -1.5417102808
Cl 2.2989050875 0.2770149819 0.0961198291
Na -0.3901963976 -0.9781583226 -0.0218008128
5

O -0.0723814346 1.6959251084 0.1129284819
H 0.7442250008 2.2172525942 0.1577236511
H -0.0328222036 1.2420753699 -0.7546122399
Cl -0.3061834489 -2.0289242353 0.0535855527
Na 0.1023780193 -0.0316320296 1.7639519037
5

O -3.0977134922 -0.8971907696 -0.7121916653
H -3.7856466683 -1.5478757606 -0.5509219219
H -2.2560435446 -1.3360248289 -0.4609745941
Cl -0.3061834489 -2.0289242353 0.0535855527
Na 0.1023780193 -0.0316320296 1.7639519037
5

O -2.4885045724 0.1614543498 -3.2621970927
H -2.9702853821 0.9736724048 -3.4320014305
H -2.8591706651 -0.2057458407 -2.4405972456
Cl -0.3061834489 -2.0289242353 0.0535855527
Na 0.1023780193 -0.0316320296 1.7639519037
5

O 2.8090485668 -1.8557782654 -0.1445783283
H 3.2752140967 -2.691586049 -0.2189479389
H 1.8549248828 -2.0740281465 -0.1398649876
Cl -0.3061834489 -2.0289242353 0.0535855527
Na 0.1023780193 -0.0316320296 1.7639519037
5

O -0.261055938 0.105025822 -0.5189413351
H -0.4719751608 -0.5761480088 -1.1834346066
H 0.6580826723 0.3930531735 -0.7188941148
Cl 2.6533074555 0.9952106732 -0.7263508612
Na -1.2591644907 1.9693457505 0.3662476449
5

O -3.1972559798 -1.3823479896 -1.0055314946
H -2.7304781786 -1.4646201374 -1.8434747922
H -2.7561557738 -2.0207380432 -0.4202653335
Cl 2.6533074555 0.9952106732 -0.7263508612
Na -1.2591644907 1.9693457505 0.3662476449
5

O 0.4946880994 0.4208600137 -2.7696882681
H 1.2302813981 0.7309959962 -3.300706705
H 0.7370674341 -0.4988974069 -2.5320289339
Cl -1.2517762203 -1.2385418993 0.216984731
Na -0.3185832408 1.0857739103 -0.7322726135
5

O 2.303642328 -2.0497840849 -1.1380526772
H 3.117975759 -2.4887125374 -1.3948966405
H 2.5260919992 -1.0929488403 -1.0847742477
Cl 2.6533074555 0.9952106732 -0.7263508612
Na -1.2591644907 1.9693457505 0.3662476449
5

O 0.0543825301 -0.1219805345 1.9294190066
H -0.2172874815 0.7938595241 2.0543544523
H 0.9406404666 -0.0377274188 1.534706895
Cl 2.3011816847 0.2864694495 -0.2509124458
Na -0.873919261 -1.2975130053 0.1644386798
5

O 1.0568967422 -2.568161884 -0.0321657225
H 1.5115693685 -3.220785288 0.5034695419
H 1.6777290737 -1.817449608 -0.1246560068
Cl 2.3011816847 0.2864694495 -0.2509124458
Na -0.873919261 -1.2975130053 0.1644386798
5

O -0.0798056546 0.795362552 -1.7489743083
H 0.0019546703 0.7263628082 -2.7023223922
H 0.8379204045 0.8310505297 -1.393666938
Cl 2.3340136976 0.303094769 3.7399e-5
Na -0.4694674391 -0.8315785982 0.0012043324
5

O 1.0960885091 -2.4757767505 0.0021483108
H 1.5080141129 -3.3398446653 0.0034465841
H 1.8104059963 -1.8057038679 0.00173863
Cl 2.3340136976 0.303094769 3.7399e-5
Na -0.4694674391 -0.8315785982 0.0012043324
5

O -2.0720572581 1.9487820841 -0.0028237387
H -1.4745714286 1.8939033966 0.7574221718
H -1.4744953522 1.8937668642 -0.7630232969
Cl 2.3340136976 0.303094769 3.7399e-5
Na -0.4694674391 -0.8315785982 0.0012043324
5

O 0.0733310599 -2.0524779034 -2.1169955206
H 0.3905437806 -1.3983885465 -2.7489344373
H 0.6255927979 -1.8986591036 -1.3297277742
Cl 1.4834794382 -0.6111038406 0.3685304138
Na -0.8373557764 0.5476287296 -0.3023125103
5

O -2.2559558849 -0.9597196409 -1.2521884898
H -2.9797759229 -1.5406761438 -1.0161482447
H -1.547531332 -1.5225867158 -1.633982236
Cl 1.4834794382 -0.6111038406 0.3685304138
Na -0.8373557764 0.5476287296 -0.3023125103
5

O -1.0081256502 2.1923253576 1.2436094267
H -1.4605204306 3.0072950574 1.4614768388
H -0.1725611026 2.1781028394 1.7603811672
Cl 1.4834794382 -0.6111038406 0.3685304138
Na -0.8373557764 0.5476287296 -0.3023125103
5

O 1.072215479 -2.0690753284 -1.200504563
H 1.3181252386 -2.5755809701 -1.9774000053
H 0.473228412 -1.3495843616 -1.5150751214
Cl -0.8264213132 0.2758334297 -1.5485022947
Na -0.5464362571 -0.2203809363 1.020435311
5

O 0.9117703317 2.4386090704 -0.318748172
H 1.1190520639 3.2148956375 -0.8430813196
H 0.3558643921 1.8550343731 -0.8898801936
Cl -0.8264213132 0.2758334297 -1.5485022947
Na -0.5464362571 -0.2203809363 1.020435311
5

O -0.4632723653 -2.5379618277 1.0767225659
H -0.0995258004 -3.154738076 1.7141240396
H 0.0612134361 -2.6490835682 0.2618312492
Cl -0.8264213132 0.2758334297 -1.5485022947
Na -0.5464362571 -0.2203809363 1.020435311
5

O -0.6217331781 1.9063293686 1.9451009271
H -0.3108092426 2.2681190379 2.7765287435
H -0.1115949774 2.3541548455 1.2448022102
Cl -0.8264213132 0.2758334297 -1.5485022947
Na -0.5464362571 -0.2203809363 1.020435311
5

O 1.4344347276 -0.1817009641 -2.1938129068
H 0.7253656252 -0.3059296759 -2.8330951445
H 1.1260617277 0.5724807221 -1.6632931561
Cl -0.2134584551 1.676725623 -0.1421995643
Na -0.6882559907 -0.7619111548 0.8392407323
5

O -1.5588376 0.373302916 -2.6099889341
H -2.2009605588 0.8960627269 -3.095390033
H -1.2075995757 0.9582807059 -1.9058942289
Cl -0.2134584551 1.676725623 -0.1421995643
Na -0.6882559907 -0.7619111548 0.8392407323
5

O 0.4994883322 -1.1066380743 2.762992468
H -0.4286973593 -1.2851739582 2.5649988321
H 0.9723513813 -1.2967657926 1.9343970593
Cl 1.8320847904 -0.9708459243 -0.1722276686
Na 1.1818765556 1.479857151 0.616758527
5

O -4.0158002762 -0.4563831844 -0.5055898566
H -4.8701177204 -0.6534414545 -0.8936007514
H -3.3880289131 -0.3533637831 -1.243940184
Cl 1.8320847904 -0.9708459243 -0.1722276686
Na 1.1818765556 1.479857151 0.616758527
5

O 1.4421103525 2.8167809607 -1.2071080925
H 1.9726061877 3.5316687811 -1.5599958919
H 1.3190279614 2.1654478002 -1.9356398146
Cl 1.8320847904 -0.9708459243 -0.1722276686
Na 1.1818765556 1.479857151 0.616758527
5

O -1.4628242074 -2.8413329801 -0.6605355744
H -1.6839320188 -3.3376440486 -1.4505531817
H -2.1178628112 -2.1213580118 -0.5961466365
Cl -2.4795554513 0.0115566809 -0.0587693331
Na 0.1469576248 -1.2329147901 -0.1587278784
8

O -3.0685741228 -1.4621602797 -0.2522126405
H -3.0131486045 -1.0217761693 0.6083782392
H -2.2325778642 -1.9557473009 -0.3035362466
O 2.8425200243 2.2793189791 0.2010423322
H 3.4678000863 2.9992136728 0.099475201
H 2.9358638334 1.693586441 -0.5906254949
Cl 0.0072751 -2.2157239698 -0.0471078862
Na -0.0186122649 -0.1044089108 1.5494326217
8

O -2.6660488741 2.2507986123 0.2308117744
H -2.9052801756 1.8387036231 -0.6156073995
H -1.7131016359 2.4254442944 0.1522807234
O 2.8425200243 2.2793189791 0.2010423322
H 3.4678000863 2.9992136728 0.099475201
H 2.9358638334 1.693586441 -0.5906254949
Cl 0.0072751 -2.2157239698 -0.0471078862
Na -0.0186122649 -0.1044089108 1.5494326217
8

O 2.2010241606 2.0296764242 1.195972442
H 1.7694720283 1.8794200488 2.0428470307
H 1.564180897 2.5598719089 0.6866962672
O 0.2890638535 -0.1525247544 1.863631651
H -0.1412985998 -0.9562396451 2.1754205769
H -0.4420500043 0.3390674009 1.4419441619
Cl -2.1065555901 1.0280600487 0.1845826976
Na 1.9918274192 -0.130983272 0.2709533748
8

O 0.2890638535 -0.1525247544 1.863631651
H -0.1412985998 -0.9562396451 2.1754205769
H -0.4420500043 0.3390674009 1.4419441619
O 1.3003501769 0.7185984377 -1.7534158108
H 0.9811974983 1.6195377204 -1.5999265951
H 0.5401731335 0.2480306244 -2.1306328713
Cl -2.1065555901 1.0280600487 0.1845826976
Na 1.9918274192 -0.130983272 0.2709533748
8

O 0.1597373188 3.0402116197 -0.4912114072
H -0.1361051691 3.9293060665 -0.6978446554
H -0.6436826103 2.5253054292 -0.2616093843
O 2.1586194905 -2.3747384555 0.0191302387
H 2.7381628805 -3.0768334367 -0.2771712758
H 1.2383604002 -2.6512622233 -0.2065328398
Cl -2.1065555901 1.0280600487 0.1845826976
Na 1.9918274192 -0.130983272 0.2709533748
8

O -0.4796747017 0.1224137797 -1.7951065302
H -0.0180643527 0.6678931005 -2.4409430796
H 0.2385238102 -0.4208539509 -1.4063860732
O 0.7008164621 2.4735197702 0.329155437
H 1.2002256959 2.0614000912 1.0502058042
H 1.2555782619 2.325473197 -0.4542306355
Cl 1.9029328728 -1.3163447486 -0.3879552815
Na -1.2720831943 1.2745314993 0.1471739379
8

O -0.4796747017 0.1224137797 -1.7951065302
H -0.0180643527 0.6678931005 -2.4409430796
H 0.2385238102 -0.4208539509 -1.4063860732
O 2.179704527 1.4386558674 -1.8865931599
H 3.0187286748 1.6786858862 -2.2855770551
H 2.3141523915 0.5630585473 -1.4751112787
Cl 1.9029328728 -1.3163447486 -0.3879552815
Na -1.2720831943 1.2745314993 0.1471739379
8

O 0.7008164621 2.4735197702 0.329155437
H 1.2002256959 2.0614000912 1.0502058042
H 1.2555782619 2.325473197 -0.4542306355
O -2.7142250038 -1.5545075394 -1.1801077927
H -2.0590121838 -1.1470806375 -1.7646063545
H -2.1758376773 -2.0555852011 -0.5472846369
Cl 1.9029328728 -1.3163447486 -0.3879552815
Na -1.2720831943 1.2745314993 0.1471739379
8

O 2.179704527 1.4386558674 -1.8865931599
H 3.0187286748 1.6786858862 -2.2855770551
H 2.3141523915 0.5630585473 -1.4751112787
O -2.7142250038 -1.5545075394 -1.1801077927
H -2.0590121838 -1.1470806375 -1.7646063545
H -2.1758376773 -2.0555852011 -0.5472846369
Cl 1.9029328728 -1.3163447486 -0.3879552815
Na -1.2720831943 1.2745314993 0.1471739379
8

O -0.9065384165 -0.078628761 1.9781173311
H -0.9638714228 -1.019231369 1.7530973059
H 0.0105107146 0.0533371588 2.2649155454
O -3.4861026666 0.8839612614 -0.2605925235
H -4.3131896529 0.9667348017 0.2155752342
H -3.4131238438 -0.0527095598 -0.5463630725
Cl 1.9029328728 -1.3163447486 -0.3879552815
Na -1.2720831943 1.2745314993 0.1471739379
8

O -1.6502074357 0.5830449801 3.0682785643
H -1.9698567413 0.8336038085 3.9348967698
H -2.2524581129 0.9815000427 2.4011556045
O 2.8090485668 -1.8557782654 -0.1445783283
H 3.2752140967 -2.691586049 -0.2189479389
H 1.8549248828 -2.0740281465 -0.1398649876
Cl -0.3061834489 -2.0289242353 0.0535855527
Na 0.1023780193 -0.0316320296 1.7639519037
8

O -1.4817925156 -2.6515858693 0.5822944989
H -1.7099353058 -1.9899530081 1.2468670026
H -0.5067899494 -2.6439796046 0.5977378165
O -0.7576300086 -0.1027198642 2.0684013
H -0.6649893489 0.0677346274 3.0080895927
H 0.0646090369 -0.5806394483 1.8006647769
Cl 1.5183494523 -1.6643844928 0.7954775749
Na -1.1891691232 1.3231885285 0.2831385664
8

O -1.4618737819 -2.6531825859 -0.2992422587
H -2.1122303051 -3.2400251294 0.0901921975
H -1.9365559926 -1.8181591264 -0.4918492982
O -0.2693807675 -0.1463264411 1.6194253416
H 0.1954880997 0.692437385 1.7571831327
H -1.0739111423 0.0907937769 1.1267301932
Cl -2.3446582351 0.2903645659 -0.7612961474
Na 0.5878587738 -1.758993868 0.2416905432
8

O 1.2908175985 1.4833299661 2.9063389517
H 1.9402382331 1.6554028593 3.5894014292
H 0.9813538111 0.5604284652 3.0438283659
O 0.4994883322 -1.1066380743 2.762992468
H -0.4286973593 -1.2851739582 2.5649988321
H 0.9723513813 -1.2967657926 1.9343970593
Cl 1.8320847904 -0.9708459243 -0.1722276686
Na 1.1818765556 1.479857151 0.616758527
8

O 1.4421103525 2.8167809607 -1.2071080925
H 1.9726061877 3.5316687811 -1.5599958919
H 1.3190279614 2.1654478002 -1.9356398146
O 1.0593761364 0.7026651849 -2.8437526987
H 0.1227872709 0.4678033774 -2.9110810978
H 1.4283478227 0.0495945934 -2.2254915087
Cl 1.8320847904 -0.9708459243 -0.1722276686
Na 1.1818765556 1.479857151 0.616758527
8

O 1.4421103525 2.8167809607 -1.2071080925
H 1.9726061877 3.5316687811 -1.5599958919
H 1.3190279614 2.1654478002 -1.9356398146
O -1.120882293 1.0891146289 0.4619305717
H -1.8257548843 1.7082063376 0.6690326932
H -1.4053819255 0.2249888005 0.83826081
Cl 1.8320847904 -0.9708459243 -0.1722276686
Na 1.1818765556 1.479857151 0.616758527
8

O -0.6114132129 -2.563410372 -0.9529237877
H -0.4488365769 -3.4628564032 -1.2454167431
H 0.2691574541 -2.1714496074 -0.7393710745
O 0.4994883322 -1.1066380743 2.762992468
H -0.4286973593 -1.2851739582 2.5649988321
H 0.9723513813 -1.2967657926 1.9343970593
Cl 1.8320847904 -0.9708459243 -0.1722276686
Na 1.1818765556 1.479857151 0.616758527
8

O 1.826370044 2.4133753094 -0.0174402979
H 1.1307203396 2.862866758 -0.5175075774
H 1.4007779084 2.158736448 0.8170944101
O 1.3545892999 -0.1282481104 -0.9570639106
H 0.4450807424 0.0707858235 -1.2418224565
H 1.720822955 0.7491535033 -0.7211407603
Cl 0.011319912 0.9353067613 2.2766639492
Na 0.8996205344 -1.2835077701 1.0726237646
8

O -1.6083476708 3.3747427692 1.2379509726
H -1.524058965 4.1388721443 1.8128348173
H -1.0851420977 2.6651849886 1.665906359
O -1.3348493108 0.4997188432 -1.6892698221
H -1.1852540432 1.4542211074 -1.7984202709
H -1.8559465277 0.4191528792 -0.8675882851
Cl 0.011319912 0.9353067613 2.2766639492
Na 0.8996205344 -1.2835077701 1.0726237646
8

O 2.2932159458 -3.0078023233 0.5474058773
H 2.8042282382 -3.765258668 0.832080789
H 2.2061286099 -3.0644118292 -0.4288139893
O -1.0533355337 -2.1366302531 -2.511733932
H -1.6691889787 -2.4709961071 -3.1672076696
H -1.1979804388 -1.1734180658 -2.4631245445
Cl 0.011319912 0.9353067613 2.2766639492
Na 0.8996205344 -1.2835077701 1.0726237646
8

O 0.0104473976 -0.2845817271 1.921853064
H -0.2900163595 0.6279098226 1.9868359014
H 0.9107259904 -0.1904263882 1.5593124353
O 1.1909088228 -2.5985638089 -0.0752861992
H 1.754491126 -3.3713642045 -0.0314162503
H 1.7824294239 -1.8216119609 -0.1396999195
Cl 2.3198629807 0.2935593306 -0.1496906548
Na -0.8019278679 -1.4862391263 0.0898967347
8

O 0.0104473976 -0.2845817271 1.921853064
H -0.2900163595 0.6279098226 1.9868359014
H 0.9107259904 -0.1904263882 1.5593124353
O -0.3159907712 -0.2803403711 -1.8278324735
H -0.8127299729 0.544495375 -1.8898055508
H 0.596609124 -0.0196120627 -1.6105897876
Cl 2.3198629807 0.2935593306 -0.1496906548
Na -0.8019278679 -1.4862391263 0.0898967347
8

O -2.8959544451 -0.48616301 0.0707417476
H -3.6441773994 -0.4164162184 0.6656854514
H -2.7288199156 0.4130893354 -0.265133116
O -0.3159907712 -0.2803403711 -1.8278324735
H -0.8127299729 0.544495375 -1.8898055508
H 0.596609124 -0.0196120627 -1.6105897876
Cl 2.3198629807 0.2935593306 -0.1496906548
Na -0.8019278679 -1.4862391263 0.0898967347
8

O 0.0104473976 -0.2845817271 1.921853064
H -0.2900163595 0.6279098226 1.9868359014
H 0.9107259904 -0.1904263882 1.5593124353
O -2.8959544451 -0.48616301 0.0707417476
H -3.6441773994 -0.4164162184 0.6656854514
H -2.7288199156 0.4130893354 -0.265133116
Cl 2.3198629807 0.2935593306 -0.1496906548
Na -0.8019278679 -1.4862391263 0.0898967347
8

O 0.9117703317 2.4386090704 -0.318748172
H 1.1190520639 3.2148956375 -0.8430813196
H 0.3558643921 1.8550343731 -0.8898801936
O 1.8274929125 -0.0868649514 0.8109301904
H 1.9721404275 -0.7259278292 0.0997916517
H 1.9089115873 0.7826514895 0.3952382526
Cl -0.8264213132 0.2758334297 -1.5485022947
Na -0.5464362571 -0.2203809363 1.020435311
8

O 3.4956447781 0.7782610485 0.5107991276
H 4.3656830935 0.4481917251 0.2770217195
H 2.9557210985 -0.0164246772 0.6821878483
O -2.2836040623 -1.6599747957 -1.766542397
H -2.6267668683 -2.3184363836 -2.3735930779
H -2.0222299804 -2.1340992631 -0.9370412998
Cl 1.5183494523 -1.6643844928 0.7954775749
Na -1.1891691232 1.3231885285 0.2831385664
8

O -0.6217331781 1.9063293686 1.9451009271
H -0.3108092426 2.2681190379 2.7765287435
H -0.1115949774 2.3541548455 1.2448022102
O 1.072215479 -2.0690753284 -1.200504563
H 1.3181252386 -2.5755809701 -1.9774000053
H 0.473228412 -1.3495843616 -1.5150751214
Cl -0.8264213132 0.2758334297 -1.5485022947
Na -0.5464362571 -0.2203809363 1.020435311
8

O 2.2443198608 2.5919278139 1.1671353492
H 2.1844178855 2.8542119143 2.0880141178
H 2.7149373873 1.736432448 1.1674916715
O 0.2176632678 0.2543340292 1.9997321529
H 0.6588874161 -0.5975612494 1.8964329985
H -0.7160545405 0.0438430935 2.162851759
Cl -2.0768181291 1.2885671506 -0.7140434577
Na 0.3876679727 1.6392527061 0.0995121173
8

O 3.2219600415 0.071641052 0.5187553653
H 2.7018391813 -0.7204278483 0.7028722561
H 3.0030741004 0.2997673403 -0.397881575
O 2.2443198608 2.5919278139 1.1671353492
H 2.1844178855 2.8542119143 2.0880141178
H 2.7149373873 1.736432448 1.1674916715
Cl -2.0768181291 1.2885671506 -0.7140434577
Na 0.3876679727 1.6392527061 0.0995121173
8

O 3.2219600415 0.071641052 0.5187553653
H 2.7018391813 -0.7204278483 0.7028722561
H 3.0030741004 0.2997673403 -0.397881575
O 1.2550074842 -2.2637916219 0.7856922183
H 1.6435082534 -3.0702022082 1.1341055344
H 0.2748917998 -2.4283091212 0.7441957747
Cl -2.0768181291 1.2885671506 -0.7140434577
Na 0.3876679727 1.6392527061 0.0995121173
8

O -1.3480686649 -2.3914601421 0.1802396808
H -2.0522259731 -2.0123682433 0.7265128516
H -1.6291786122 -2.2341488761 -0.7343121499
O 0.6935052382 -0.5181548388 -1.7332710351
H -0.1633517077 -0.6906603002 -2.1580355166
H 0.8243945883 0.4563988148 -1.7119962743
Cl -0.2707857671 0.8013734273 2.0694651766
Na 0.6209213187 -1.2263130412 0.5286253868
8

O -1.9620738306 -1.1843000864 -2.3523328837
H -2.4312542545 -1.4155288728 -3.1561638028
H -2.4802084268 -0.4664926145 -1.9095028165
O -3.2180220286 0.6862006879 -0.9146038168
H -3.3486601454 0.298253472 -0.0349411545
H -2.6506449646 1.4595639917 -0.7599686934
Cl -0.2707857671 0.8013734273 2.0694651766
Na 0.6209213187 -1.2263130412 0.5286253868
8

O 1.1982177055 2.1416199974 -1.4097810448
H 1.781164768 2.1688672663 -0.635562015
H 0.3603893353 2.5173555498 -1.0977634274
O -3.2180220286 0.6862006879 -0.9146038168
H -3.3486601454 0.298253472 -0.0349411545
H -2.6506449646 1.4595639917 -0.7599686934
Cl -0.2707857671 0.8013734273 2.0694651766
Na 0.6209213187 -1.2263130412 0.5286253868
8

O 0.0543825301 -0.1219805345 1.9294190066
H -0.2172874815 0.7938595241 2.0543544523
H 0.9406404666 -0.0377274188 1.534706895
O -0.2012777267 -0.2381674175 -1.8903365453
H -0.0651747427 -0.6390874524 -2.7517560214
H 0.6962934163 -0.005641628 -1.5543562965
Cl 2.3011816847 0.2864694495 -0.2509124458
Na -0.873919261 -1.2975130053 0.1644386798
8

O -1.2533032703 1.1154618099 -1.8172935587
H -1.9799162156 0.8210837009 -1.2452618668
H -0.6120369054 1.5184273514 -1.2076997536
O 0.1850462846 -1.0188014489 -2.5471116823
H 0.4164815512 -1.0837192144 -3.4739628349
H -0.4038861347 -0.2321592579 -2.448912359
Cl 0.9529737935 1.5571031191 0.4906236507
Na 1.0726857805 -0.9917065082 -0.4541769653
8

O -0.7491021817 -1.830560737 0.7008261472
H -1.5749900291 -1.7146645734 0.2161644631
H -0.871101859 -1.2703874423 1.4820337938
O 3.0582167442 -0.6707712218 0.6467073329
H 3.9928326197 -0.7044541023 0.8524060099
H 2.7509992372 0.2353830577 0.8294031568
Cl 0.9529737935 1.5571031191 0.4906236507
Na 1.0726857805 -0.9917065082 -0.4541769653
8

O -1.3164516366 0.5231897308 2.2332304289
H -1.3460236362 0.8974387453 3.1160502409
H -0.568794211 0.9687693704 1.7670221334
O 3.0582167442 -0.6707712218 0.6467073329
H 3.9928326197 -0.7044541023 0.8524060099
H 2.7509992372 0.2353830577 0.8294031568
Cl 0.9529737935 1.5571031191 0.4906236507
Na 1.0726857805 -0.9917065082 -0.4541769653
8

O -1.2533032703 1.1154618099 -1.8172935587
H -1.9799162156 0.8210837009 -1.2452618668
H -0.6120369054 1.5184273514 -1.2076997536
O 3.0582167442 -0.6707712218 0.6467073329
H 3.9928326197 -0.7044541023 0.8524060099
H 2.7509992372 0.2353830577 0.8294031568
Cl 0.9529737935 1.5571031191 0.4906236507
Na 1.0726857805 -0.9917065082 -0.4541769653
8

O 0.1274776009 -0.8778659766 -1.8910954475
H 0.700074689 -0.2312068135 -2.3103251109
H -0.7277871318 -0.419964623 -1.7701038915
O -1.6228611146 -2.0578885073 0.5635212886
H -2.330824519 -2.6190349634 0.8814391441
H -2.0498411072 -1.2668884436 0.1718563201
Cl -2.3429401536 0.6397689024 -0.7663327675
Na 0.5968347844 -1.6487336884 0.2362496229
8

O 0.1274776009 -0.8778659766 -1.8910954475
H 0.700074689 -0.2312068135 -2.3103251109
H -0.7277871318 -0.419964623 -1.7701038915
O 0.2233284949 2.3827457065 -0.8962066289
H 0.1097632889 3.1464211508 -1.4663550067
H -0.6143883881 1.874009316 -0.957481115
Cl -2.3429401536 0.6397689024 -0.7663327675
Na 0.5968347844 -1.6487336884 0.2362496229
8

O -1.6228611146 -2.0578885073 0.5635212886
H -2.330824519 -2.6190349634 0.8814391441
H -2.0498411072 -1.2668884436 0.1718563201
O 0.8930363794 -0.1880634793 2.0803417899
H 1.0872387407 -0.3956755506 2.996296135
H 0.1720583149 0.4924631688 2.0918310461
Cl -2.3429401536 0.6397689024 -0.7663327675
Na 0.5968347844 -1.6487336884 0.2362496229
8

O 0.5228193734 -1.3675521891 -2.1560161008
H 1.2287230482 -0.7286591494 -2.3069105295
H 0.7065637573 -1.686748497 -1.2497181909
O 2.2687854706 0.707185697 -0.7534629419
H 3.1806709254 0.9396793341 -0.5661404364
H 2.0283343932 -0.0077694999 -0.1191216757
Cl 0.9665168767 -1.4850198374 0.9387656014
Na -1.0720185192 0.0520045292 0.7512844654
8

O -1.7490336523 1.9896915068 1.824753031
H -1.7620461576 2.4461671079 2.6671441821
H -1.1428308877 2.4723818697 1.241768006
O 0.5228193734 -1.3675521891 -2.1560161008
H 1.2287230482 -0.7286591494 -2.3069105295
H 0.7065637573 -1.686748497 -1.2497181909
Cl 0.9665168767 -1.4850198374 0.9387656014
Na -1.0720185192 0.0520045292 0.7512844654
8

O 2.2687854706 0.707185697 -0.7534629419
H 3.1806709254 0.9396793341 -0.5661404364
H 2.0283343932 -0.0077694999 -0.1191216757
O -1.7561051192 -0.1223587671 -1.4833950425
H -2.5274488448 -0.3972702119 -1.9816437195
H -0.9838064417 -0.6109993338 -1.8621679421
Cl 0.9665168767 -1.4850198374 0.9387656014
Na -1.0720185192 0.0520045292 0.7512844654
8

O -0.10386162 2.0579915416 -0.3744014009
H -0.5880238896 1.8474861987 -1.1801088682
H 0.8147008295 1.7614239202 -0.5300895224
O -1.7490336523 1.9896915068 1.824753031
H -1.7620461576 2.4461671079 2.6671441821
H -1.1428308877 2.4723818697 1.241768006
Cl 0.9665168767 -1.4850198374 0.9387656014
Na -1.0720185192 0.0520045292 0.7512844654
8

O 1.9900735357 1.593430569 -0.5009510748
H 2.7739567989 1.1311727119 -0.8065919045
H 1.3421279698 1.5304450311 -1.2268423897
O -0.2009803366 0.961059514 -2.0836755061
H -0.6443189697 1.3755668803 -2.8270210656
H -0.8098003446 1.0426371515 -1.3122163996
Cl -1.621277328 1.0059419529 0.6267788926
Na 0.8269829162 0.6796698936 1.2684100495
8

O -1.857371576 -2.0765498875 0.1764179288
H -2.7320631476 -2.3510377316 -0.1056755509
H -1.9350052207 -1.1280844016 0.4021231441
O -0.2009803366 0.961059514 -2.0836755061
H -0.6443189697 1.3755668803 -2.8270210656
H -0.8098003446 1.0426371515 -1.3122163996
Cl -1.621277328 1.0059419529 0.6267788926
Na 0.8269829162 0.6796698936 1.2684100495
8

O 1.9900735357 1.593430569 -0.5009510748
H 2.7739567989 1.1311727119 -0.8065919045
H 1.3421279698 1.5304450311 -1.2268423897
O 0.4993008769 -1.757239267 -1.2337294089
H 0.3182809332 -0.9504145112 -1.7367004985
H -0.3667955234 -2.0075750235 -0.8563417821
Cl -1.621277328 1.0059419529 0.6267788926
Na 0.8269829162 0.6796698936 1.2684100495
8

O -2.2011060979 -0.5105155267 2.0440337408
H -2.8642124077 -0.4386534015 2.73410206
H -2.3878609285 0.2179472665 1.4037870034
O 0.5729123006 -0.1897140559 1.5681898019
H -0.2815099157 -0.2159489632 2.029027838
H 0.6889109397 -1.0981950949 1.2432169252
Cl -2.3734388017 1.5797617238 -0.1501064258
Na 0.2425258925 1.5244248821 -0.1311596835
8

O 0.6890837163 0.2035321277 -1.9556433504
H 1.3899150162 -0.4582284223 -1.8736402807
H -0.1157987667 -0.2550558453 -2.2393954028
O -2.0154570632 -0.7064474329 -2.1490568367
H -2.644219459 -0.7174084963 -2.874183552
H -2.2465740571 0.0774152742 -1.596306403
Cl -2.3734388017 1.5797617238 -0.1501064258
Na 0.2425258925 1.5244248821 -0.1311596835
8

O -1.7679449073 -2.4970982994 0.0187195414
H -2.0602516308 -1.9242073075 0.7478675893
H -1.9458866256 -1.9874661445 -0.7916854105
O 0.5729123006 -0.1897140559 1.5681898019
H -0.2815099157 -0.2159489632 2.029027838
H 0.6889109397 -1.0981950949 1.2432169252
Cl -2.3734388017 1.5797617238 -0.1501064258
Na 0.2425258925 1.5244248821 -0.1311596835
8

O 0.001304522 -0.0445338333 -1.3654446352
H 0.7775982906 0.2535637629 -1.8525428583
H 0.3716004542 -0.6896894902 -0.7240583851
O 2.1797482656 2.436631906 0.5774252733
H 1.703461546 1.9640048583 1.2746860663
H 2.5884751233 1.7357071124 0.039418289
Cl 1.3029679705 -1.739496649 0.8715776009
Na -1.113155192 1.5181357328 -0.0124523373
8

O 2.7233874194 -1.5978016894 -1.0344505231
H 3.3306102378 -2.156737374 -1.5238555667
H 2.1044447386 -2.1918200437 -0.5638491759
O -2.2011060979 -0.5105155267 2.0440337408
H -2.8642124077 -0.4386534015 2.73410206
H -2.3878609285 0.2179472665 1.4037870034
Cl -2.3734388017 1.5797617238 -0.1501064258
Na 0.2425258925 1.5244248821 -0.1311596835
8

O 2.7233874194 -1.5978016894 -1.0344505231
H 3.3306102378 -2.156737374 -1.5238555667
H 2.1044447386 -2.1918200437 -0.5638491759
O 0.7983438994 -2.8287667022 0.4633298842
H 0.9134565242 -3.5986773521 1.0241778001
H -0.1714232367 -2.7861347221 0.2297979733
Cl -2.3734388017 1.5797617238 -0.1501064258
Na 0.2425258925 1.5244248821 -0.1311596835
8

O -0.0472075929 3.4472317799 -0.5075127259
H -0.0562913568 4.3539049193 -0.8133017989
H 0.8639238313 3.2469399888 -0.1898234268
O -2.5228354473 -1.5392448347 -1.385517084
H -1.7094885909 -1.1974546781 -1.7791335775
H -2.2220051581 -2.2309436787 -0.764213884
Cl 1.3029679705 -1.739496649 0.8715776009
Na -1.113155192 1.5181357328 -0.0124523373
8

O -0.8411317227 0.751919019 2.6813927855
H 0.0395715697 0.472638807 2.9480049667
H -1.1598399267 0.0344340228 2.0980816287
O -1.0845125357 2.6506833931 0.7129041586
H -1.5495040372 3.4332208651 1.0103543108
H -0.9754528976 2.0986187248 1.5186235015
Cl -1.2517762203 -1.2385418993 0.216984731
Na -0.3185832408 1.0857739103 -0.7322726135
8

O 0.4946880994 0.4208600137 -2.7696882681
H 1.2302813981 0.7309959962 -3.300706705
H 0.7370674341 -0.4988974069 -2.5320289339
O 1.7986208377 0.9528430126 0.2841930067
H 2.4464606673 1.5416941012 0.6731805564
H 1.8940609485 0.0870416787 0.7357032497
Cl -1.2517762203 -1.2385418993 0.216984731
Na -0.3185832408 1.0857739103 -0.7322726135
8

O 1.617976787 -1.5276569065 1.4138739285
H 2.0446787826 -2.1793986648 0.8479680933
H 0.6674309215 -1.5886045899 1.1818181026
O 1.7986208377 0.9528430126 0.2841930067
H 2.4464606673 1.5416941012 0.6731805564
H 1.8940609485 0.0870416787 0.7357032497
Cl -1.2517762203 -1.2385418993 0.216984731
Na -0.3185832408 1.0857739103 -0.7322726135
8

O -3.0685741228 -1.4621602797 -0.2522126405
H -3.0131486045 -1.0217761693 0.6083782392
H -2.2325778642 -1.9557473009 -0.3035362466
O -0.0654293817 0.1782119719 -2.0860808522
H -0.9835207059 0.3152080635 -2.3719613448
H -0.0725572874 -0.6747728534 -1.6083486121
Cl 0.0072751 -2.2157239698 -0.0471078862
Na -0.0186122649 -0.1044089108 1.5494326217
8

O 0.083416544 1.8008566958 0.1273429673
H 0.9528860267 2.2302416503 0.1839668739
H 0.0842344252 1.3184443489 -0.7274929196
O -0.0654293817 0.1782119719 -2.0860808522
H -0.9835207059 0.3152080635 -2.3719613448
H -0.0725572874 -0.6747728534 -1.6083486121
Cl 0.0072751 -2.2157239698 -0.0471078862
Na -0.0186122649 -0.1044089108 1.5494326217
8

O -2.9069860207 0.522203111 -2.0586770305
H -3.5804140084 0.4711269603 -2.7403450157
H -3.045015402 -0.2552994051 -1.462522088
O -0.0654293817 0.1782119719 -2.0860808522
H -0.9835207059 0.3152080635 -2.3719613448
H -0.0725572874 -0.6747728534 -1.6083486121
Cl 0.0072751 -2.2157239698 -0.0471078862
Na -0.0186122649 -0.1044089108 1.5494326217
