2

Na -1.45 0.0 0.0
Cl 3.8181930534 0.0 0.0
2

Na -0.4500000000000001 0.0 0.0
Cl 2.8181930534 0.0 0.0
2

Na -2.1000000000000005 0.0 0.0
Cl 4.4681930534 0.0 0.0
2

Na -1.8 0.0 0.0
Cl 4.1681930534 0.0 0.0
2

Na -0.10000000000000014 0.0 0.0
Cl 2.4681930534 0.0 0.0
2

Na -1.6500000000000004 0.0 0.0
Cl 4.0181930534 0.0 0.0
2

Na -2.4000000000000004 0.0 0.0
Cl 4.7681930534 0.0 0.0
2

Na -2.4499999999999997 0.0 0.0
Cl 4.8181930534 0.0 0.0
2

Na -2.4499999999999997 0.0 0.0
Cl 4.8181930534 0.0 0.0
2

Na 0.2000000000000003 0.0 0.0
Cl 2.1681930533999996 0.0 0.0
2

Na -0.1499999999999997 0.0 0.0
Cl 2.5181930533999997 0.0 0.0
2

Na -1.9500000000000002 0.0 0.0
Cl 4.3181930534 0.0 0.0
2

Na -0.2000000000000003 0.0 0.0
Cl 2.5681930534 0.0 0.0
2

Na 0.04999999999999981 0.0 0.0
Cl 2.3181930534 0.0 0.0
2

Na -0.1499999999999997 0.0 0.0
Cl 2.5181930533999997 0.0 0.0
2

Na -0.5999999999999999 0.0 0.0
Cl 2.9681930533999994 0.0 0.0
2

Na -0.8500000000000002 0.0 0.0
Cl 3.2181930534 0.0 0.0
2

Na -1.2500000000000002 0.0 0.0
Cl 3.6181930534 0.0 0.0
2

Na 0.14999999999999997 0.0 0.0
Cl 2.2181930534 0.0 0.0
2

Na -0.4000000000000001 0.0 0.0
Cl 2.7681930533999997 0.0 0.0
2

Na -0.8500000000000002 0.0 0.0
Cl 3.2181930534 0.0 0.0
2

Na -0.7999999999999996 0.0 0.0
Cl 3.168193053399999 0.0 0.0
2

Na -2.1499999999999995 0.0 0.0
Cl 4.518193053399999 0.0 0.0
2

Na -0.4000000000000001 0.0 0.0
Cl 2.7681930533999997 0.0 0.0
2

Na -0.7999999999999996 0.0 0.0
Cl 3.168193053399999 0.0 0.0
2

Na -1.1 0.0 0.0
Cl 3.4681930534 0.0 0.0
2

Na -2.6999999999999997 0.0 0.0
Cl 5.0681930534 0.0 0.0
2

Na -1.45 0.0 0.0
Cl 3.8181930534 0.0 0.0
2

Na -1.75 0.0 0.0
Cl 4.1181930534 0.0 0.0
2

Na -0.5000000000000002 0.0 0.0
Cl 2.8681930533999997 0.0 0.0
2

Na -1.2500000000000002 0.0 0.0
Cl 3.6181930534 0.0 0.0
2

Na -2.5500000000000003 0.0 0.0
Cl 4.9181930534 0.0 0.0
2

Na -0.7999999999999996 0.0 0.0
Cl 3.168193053399999 0.0 0.0
2

Na 0.04999999999999981 0.0 0.0
Cl 2.3181930534 0.0 0.0
2

Na -0.7999999999999996 0.0 0.0
Cl 3.168193053399999 0.0 0.0
2

Na -0.9999999999999999 0.0 0.0
Cl 3.3681930533999997 0.0 0.0
2

Na -1.8999999999999997 0.0 0.0
Cl 4.268193053399999 0.0 0.0
2

Na -0.7 0.0 0.0
Cl 3.0681930534 0.0 0.0
2

Na -2.5000000000000004 0.0 0.0
Cl 4.868193053400001 0.0 0.0
2

Na -1.5500000000000003 0.0 0.0
Cl 3.9181930534 0.0 0.0
2

Na 0.2000000000000003 0.0 0.0
Cl 2.1681930533999996 0.0 0.0
2

Na -1.45 0.0 0.0
Cl 3.8181930534 0.0 0.0
2

Na -0.05000000000000007 0.0 0.0
Cl 2.4181930534 0.0 0.0
2

Na -2.000000000000001 0.0 0.0
Cl 4.368193053400001 0.0 0.0
2

Na 0.10000000000000014 0.0 0.0
Cl 2.2681930533999997 0.0 0.0
2

Na -0.1499999999999997 0.0 0.0
Cl 2.5181930533999997 0.0 0.0
2

Na 0.14999999999999997 0.0 0.0
Cl 2.2181930534 0.0 0.0
2

Na -0.2000000000000003 0.0 0.0
Cl 2.5681930534 0.0 0.0
2

Na -1.3000000000000003 0.0 0.0
Cl 3.6681930534 0.0 0.0
2

Na -1.3000000000000003 0.0 0.0
Cl 3.6681930534 0.0 0.0
5

O -0.5381361706 -0.0435489407 2.5745584244
H -0.7487273895 -0.417744988 3.4319722968
H -1.3814262988 0.0278746541 2.0806606209
Cl -2.4650069078 0.0606953055 0.231409941
Na 0.3763153687 -0.6797016385 0.3690577586
5

O -0.5110641138 1.8749885949 2.5075520267
H -0.7737765684 2.0039279613 3.419059308
H 0.3744857613 1.440159621 2.5302105716
Cl 2.6533074555 0.9952106732 -0.7263508612
Na -1.2591644907 1.9693457505 0.3662476449
5

O 1.0593761364 0.7026651849 -2.8437526987
H 0.1227872709 0.4678033774 -2.9110810978
H 1.4283478227 0.0495945934 -2.2254915087
Cl 1.8320847904 -0.9708459243 -0.1722276686
Na 1.1818765556 1.479857151 0.616758527
5

O 2.2053403131 2.1980967989 -0.6870861857
H 1.8968090019 1.5192343431 -1.3000470062
H 2.5543582328 1.7101035816 0.0838846796
Cl 1.5129823047 -1.8805170442 0.4078924179
Na -1.0959732016 1.3697107455 -0.2799687159
5

O 0.5703522307 -0.2997064264 1.639531263
H -0.2969021445 -0.3574177122 2.0723131371
H 0.7580343251 -1.2155767446 1.3687410425
Cl -2.2878524579 1.5674632524 -0.111093906
Na 0.3183868129 1.3488677424 -0.0306537984
5

O -1.755747514 -1.5149809099 2.669967631
H -2.0536831689 -2.3989503852 2.9143914716
H -2.3173721439 -1.2041185221 1.942107908
Cl -2.4714989121 -0.142248612 -0.1091374672
Na 0.0067803177 -1.0972141932 0.2238794893
5

O 1.4347048463 1.7977818709 2.3414290158
H 1.5722471727 1.4967961662 3.2420570092
H 1.6225295213 1.0191763209 1.7779014181
Cl 1.4834794382 -0.6111038406 0.3685304138
Na -0.8373557764 0.5476287296 -0.3023125103
5

O -0.2177768572 1.148036961 -2.0566811222
H -0.6324292441 0.3848166554 -2.4900497834
H 0.6783011304 0.8365049113 -1.8336472699
Cl 2.3801649709 0.0856701689 -0.5747683404
Na -0.8151859476 1.9795942316 -0.0246211169
5

O 1.7986208377 0.9528430126 0.2841930067
H 2.4464606673 1.5416941012 0.6731805564
H 1.8940609485 0.0870416787 0.7357032497
Cl -1.2517762203 -1.2385418993 0.216984731
Na -0.3185832408 1.0857739103 -0.7322726135
5

O 1.3835547292 2.6914474427 0.5335263849
H 1.8991692765 3.474240843 0.3277824219
H 1.8786629687 1.9268775193 0.1483649977
Cl 2.3801649709 0.0856701689 -0.5747683404
Na -0.8151859476 1.9795942316 -0.0246211169
5

O 2.2053403131 2.1980967989 -0.6870861857
H 1.8968090019 1.5192343431 -1.3000470062
H 2.5543582328 1.7101035816 0.0838846796
Cl 1.5129823047 -1.8805170442 0.4078924179
Na -1.0959732016 1.3697107455 -0.2799687159
5

O -2.0392326839 2.0233410849 0.0209247502
H -2.397028817 2.8950432135 0.1994138505
H -1.3697894951 1.8384380308 0.7098080385
Cl 2.2989050875 0.2770149819 0.0961198291
Na -0.3901963976 -0.9781583226 -0.0218008128
5

O 1.398421931 -1.6185023336 0.212767248
H 2.0222367041 -1.0834434524 0.717492234
H 1.4994494554 -1.3053724966 -0.7057353261
Cl -0.2134584551 1.676725623 -0.1421995643
Na -0.6882559907 -0.7619111548 0.8392407323
5

O 2.4030529682 0.1246803534 1.9095356708
H 2.7652966128 -0.5887567024 1.3628443585
H 2.6782524049 0.9430909913 1.4665743688
Cl -0.3061834489 -2.0289242353 0.0535855527
Na 0.1023780193 -0.0316320296 1.7639519037
5

O -0.1709781492 0.8635641458 1.6262281894
H -0.0961913888 0.8118891277 2.5814375419
H 0.7563505931 0.839326057 1.2681149608
Cl 2.2989050875 0.2770149819 0.0961198291
Na -0.3901963976 -0.9781583226 -0.0218008128
5

O 1.2307046388 -2.5817414906 0.1796340787
H 1.6394303623 -3.3458110699 -0.2290260508
H 1.8887534424 -1.8555782984 0.1495672733
Cl 2.2989050875 0.2770149819 0.0961198291
Na -0.3901963976 -0.9781583226 -0.0218008128
5

O 0.5703522307 -0.2997064264 1.639531263
H -0.2969021445 -0.3574177122 2.0723131371
H 0.7580343251 -1.2155767446 1.3687410425
Cl -2.2878524579 1.5674632524 -0.111093906
Na 0.3183868129 1.3488677424 -0.0306537984
5

O 2.3659274552 1.3405073065 0.5934723987
H 2.4451668719 0.7944674585 1.3891757362
H 2.8554312304 0.8583338308 -0.093937009
Cl 0.1596287632 -0.4094144989 -1.9014023075
Na 0.1331802073 1.4538865534 -0.0023152618
5

O 0.710980706 1.0070905858 -2.0820258685
H 1.1230788829 1.7926896978 -2.4466408652
H 1.3425299835 0.6293792841 -1.4376966538
Cl 1.4834794382 -0.6111038406 0.3685304138
Na -0.8373557764 0.5476287296 -0.3023125103
5

O 1.398421931 -1.6185023336 0.212767248
H 2.0222367041 -1.0834434524 0.717492234
H 1.4994494554 -1.3053724966 -0.7057353261
Cl -0.2134584551 1.676725623 -0.1421995643
Na -0.6882559907 -0.7619111548 0.8392407323
5

O -1.4788081982 -1.1031707711 1.2766570555
H -1.9338690026 -0.9318167297 2.1044899361
H -0.5281357013 -1.0509034562 1.4870876169
Cl 1.4841440485 -0.2284998367 0.9614531314
Na -0.9709693783 0.6049464906 -0.3204488523
5

O -2.7033538216 -0.6932474765 0.0679668362
H -3.4238897418 -1.0509740075 -0.4533748862
H -2.7667140014 0.2748004612 -0.0025713764
Cl 2.2989050875 0.2770149819 0.0961198291
Na -0.3901963976 -0.9781583226 -0.0218008128
5

O 0.3602639791 2.5745092699 0.7106535698
H 0.7541765735 3.446301119 0.7854001076
H 1.0623755998 1.9909300223 0.3577190111
Cl 2.3011816847 0.2864694495 -0.2509124458
Na -0.873919261 -1.2975130053 0.1644386798
5

O -1.9008093684 1.7901311473 -0.809077056
H -1.3821535654 1.3029974388 -1.4661476138
H -1.2262032557 2.2179789719 -0.2540689135
Cl 2.3011816847 0.2864694495 -0.2509124458
Na -0.873919261 -1.2975130053 0.1644386798
5

O -0.0793961917 0.7984574674 1.7479175072
H 0.0015376862 0.7287196137 2.7012522666
H 0.8383021009 0.8336542935 1.3924963326
Cl 2.3340136976 0.303094769 3.7399e-5
Na -0.4694674391 -0.8315785982 0.0012043324
5

O 0.5703522307 -0.2997064264 1.639531263
H -0.2969021445 -0.3574177122 2.0723131371
H 0.7580343251 -1.2155767446 1.3687410425
Cl -2.2878524579 1.5674632524 -0.111093906
Na 0.3183868129 1.3488677424 -0.0306537984
5

O -0.5110641138 1.8749885949 2.5075520267
H -0.7737765684 2.0039279613 3.419059308
H 0.3744857613 1.440159621 2.5302105716
Cl 2.6533074555 0.9952106732 -0.7263508612
Na -1.2591644907 1.9693457505 0.3662476449
5

O -0.2012777267 -0.2381674175 -1.8903365453
H -0.0651747427 -0.6390874524 -2.7517560214
H 0.6962934163 -0.005641628 -1.5543562965
Cl 2.3011816847 0.2864694495 -0.2509124458
Na -0.873919261 -1.2975130053 0.1644386798
5

O 1.8274929125 -0.0868649514 0.8109301904
H 1.9721404275 -0.7259278292 0.0997916517
H 1.9089115873 0.7826514895 0.3952382526
Cl -0.8264213132 0.2758334297 -1.5485022947
Na -0.5464362571 -0.2203809363 1.020435311
5

O 0.6038775715 0.2614549895 -2.1471183478
H 0.8520358883 0.8013876518 -2.9013087768
H -0.2770621939 -0.1125822128 -2.3495090521
Cl -2.2878524579 1.5674632524 -0.111093906
Na 0.3183868129 1.3488677424 -0.0306537984
5

O 0.2855967208 0.2994432298 2.1824178098
H -0.2131826974 1.1263248132 2.0920125621
H -0.274800196 -0.3066657484 2.7053033957
Cl -2.4714989121 -0.142248612 -0.1091374672
Na 0.0067803177 -1.0972141932 0.2238794893
5

O 0.6821042107 -2.4408930662 -1.1548945828
H 0.3308594449 -3.1546906618 -0.6164847924
H 1.1173456617 -1.8408912114 -0.5187230109
Cl 1.4841440485 -0.2284998367 0.9614531314
Na -0.9709693783 0.6049464906 -0.3204488523
5

O 0.4584274823 3.2412865883 -0.5224479921
H 0.8419074349 4.063049173 -0.2102536241
H 1.2204753936 2.6507832633 -0.6872855854
Cl 2.6533074555 0.9952106732 -0.7263508612
Na -1.2591644907 1.9693457505 0.3662476449
5

O -2.0392326839 2.0233410849 0.0209247502
H -2.397028817 2.8950432135 0.1994138505
H -1.3697894951 1.8384380308 0.7098080385
Cl 2.2989050875 0.2770149819 0.0961198291
Na -0.3901963976 -0.9781583226 -0.0218008128
5

O -2.0006984963 -1.6753760823 -0.8217656639
H -1.9028614083 -2.5454537248 -1.2124501093
H -1.9753852764 -1.0374191421 -1.5620649267
Cl -0.2134584551 1.676725623 -0.1421995643
Na -0.6882559907 -0.7619111548 0.8392407323
5

O -1.120882293 1.0891146289 0.4619305717
H -1.8257548843 1.7082063376 0.6690326932
H -1.4053819255 0.2249888005 0.83826081
Cl 1.8320847904 -0.9708459243 -0.1722276686
Na 1.1818765556 1.479857151 0.616758527
5

O -0.3103226097 -0.0972120972 2.0010921679
H -0.4618316496 -0.3963576445 2.9000286247
H -1.1958949313 0.0158174298 1.5850097845
Cl -2.4795554513 0.0115566809 -0.0587693331
Na 0.1469576248 -1.2329147901 -0.1587278784
5

O -1.120882293 1.0891146289 0.4619305717
H -1.8257548843 1.7082063376 0.6690326932
H -1.4053819255 0.2249888005 0.83826081
Cl 1.8320847904 -0.9708459243 -0.1722276686
Na 1.1818765556 1.479857151 0.616758527
5

O 1.1021625759 2.1820942473 1.0340242934
H 0.4603788952 2.4472779763 0.3545207711
H 0.6437112818 1.4921793485 1.5417608658
Cl -2.4795554513 0.0115566809 -0.0587693331
Na 0.1469576248 -1.2329147901 -0.1587278784
5

O 1.3928602524 -2.0902648222 -2.0307441051
H 1.6227483503 -2.554359323 -1.2179068634
H 1.5918894066 -1.1616461178 -1.8247727117
Cl 1.4645267199 0.7798131433 -0.5307064263
Na -0.9141146352 -0.6566146213 0.1829725939
5

O -2.7383126115 -0.6772050843 0.0015531974
H -3.6372908997 -1.0050149664 0.0030703083
H -2.7744925282 0.3034118521 -0.0001348118
Cl 2.3340136976 0.303094769 3.7399e-5
Na -0.4694674391 -0.8315785982 0.0012043324
5

O -1.783538821 -2.5258912191 0.0181319086
H -1.9306581979 -2.0129567677 -0.7919255761
H -2.0866483685 -1.9522095202 0.7414281868
Cl -2.2878524579 1.5674632524 -0.111093906
Na 0.3183868129 1.3488677424 -0.0306537984
5

O 2.07816801 0.8619845506 1.7777286936
H 2.7300292694 1.5222315558 2.0226693568
H 1.4732063706 1.2967461557 1.1398135105
Cl -0.2134584551 1.676725623 -0.1421995643
Na -0.6882559907 -0.7619111548 0.8392407323
5

O -0.8411317227 0.751919019 2.6813927855
H 0.0395715697 0.472638807 2.9480049667
H -1.1598399267 0.0344340228 2.0980816287
Cl -1.2517762203 -1.2385418993 0.216984731
Na -0.3185832408 1.0857739103 -0.7322726135
5

O -0.8411317227 0.751919019 2.6813927855
H 0.0395715697 0.472638807 2.9480049667
H -1.1598399267 0.0344340228 2.0980816287
Cl -1.2517762203 -1.2385418993 0.216984731
Na -0.3185832408 1.0857739103 -0.7322726135
5

O 1.0516329095 -1.8605386416 0.9694479832
H 1.2346906833 -2.0121548974 1.8993551801
H 1.500060784 -1.0258929536 0.7338144596
Cl 1.4645267199 0.7798131433 -0.5307064263
Na -0.9141146352 -0.6566146213 0.1829725939
5

O -0.5033603387 0.1065499599 1.607642933
H -0.1241449907 0.5178021187 2.3890287796
H 0.1586378891 -0.5662340781 1.3290723023
Cl 1.5129823047 -1.8805170442 0.4078924179
Na -1.0959732016 1.3697107455 -0.2799687159
5

O -0.8720257629 -2.0916214149 -1.213482762
H -1.1532163834 -3.0015442226 -1.3250268169
H -1.6491508774 -1.5898843166 -0.8925571911
Cl -2.4650069078 0.0606953055 0.231409941
Na 0.3763153687 -0.6797016385 0.3690577586
5

O -1.1567029357 -0.7171482119 -2.1765575618
H -1.6158282843 -0.9840655454 -2.9728217265
H -0.5457168625 -1.4471256394 -1.9354987399
Cl 1.4841440485 -0.2284998367 0.9614531314
Na -0.9709693783 0.6049464906 -0.3204488523
5

O -0.8720257629 -2.0916214149 -1.213482762
H -1.1532163834 -3.0015442226 -1.3250268169
H -1.6491508774 -1.5898843166 -0.8925571911
Cl -2.4650069078 0.0606953055 0.231409941
Na 0.3763153687 -0.6797016385 0.3690577586
8

O 0.1274776009 -0.8778659766 -1.8910954475
H 0.700074689 -0.2312068135 -2.3103251109
H -0.7277871318 -0.419964623 -1.7701038915
O 2.8649940651 -1.7520969939 -0.1627176031
H 3.4898722682 -2.1693066986 -0.7568083079
H 2.9526273989 -0.7844204561 -0.2815782483
Cl -2.3429401536 0.6397689024 -0.7663327675
Na 0.5968347844 -1.6487336884 0.2362496229
8

O 2.2443198608 2.5919278139 1.1671353492
H 2.1844178855 2.8542119143 2.0880141178
H 2.7149373873 1.736432448 1.1674916715
O -2.5387702719 -0.3425730669 1.8218252009
H -3.3378996578 -0.1507510973 2.3167285738
H -2.5543673803 0.2315826195 1.0199742788
Cl -2.0768181291 1.2885671506 -0.7140434577
Na 0.3876679727 1.6392527061 0.0995121173
8

O 0.8930555843 -2.1671927356 -1.8018052871
H 0.6094148929 -2.8842226095 -2.3752446226
H 0.1560764723 -2.0379020594 -1.159462102
O -0.8411317227 0.751919019 2.6813927855
H 0.0395715697 0.472638807 2.9480049667
H -1.1598399267 0.0344340228 2.0980816287
Cl -1.2517762203 -1.2385418993 0.216984731
Na -0.3185832408 1.0857739103 -0.7322726135
8

O -0.4145818057 -2.8409150522 -0.6005041502
H -0.683846164 -2.2092561652 -1.2866827801
H -1.0260273999 -2.6714547337 0.1350497781
O 1.3003501769 0.7185984377 -1.7534158108
H 0.9811974983 1.6195377204 -1.5999265951
H 0.5401731335 0.2480306244 -2.1306328713
Cl -2.1065555901 1.0280600487 0.1845826976
Na 1.9918274192 -0.130983272 0.2709533748
8

O -1.9008093684 1.7901311473 -0.809077056
H -1.3821535654 1.3029974388 -1.4661476138
H -1.2262032557 2.2179789719 -0.2540689135
O -0.2012777267 -0.2381674175 -1.8903365453
H -0.0651747427 -0.6390874524 -2.7517560214
H 0.6962934163 -0.005641628 -1.5543562965
Cl 2.3011816847 0.2864694495 -0.2509124458
Na -0.873919261 -1.2975130053 0.1644386798
8

O -0.6217331781 1.9063293686 1.9451009271
H -0.3108092426 2.2681190379 2.7765287435
H -0.1115949774 2.3541548455 1.2448022102
O 1.8274929125 -0.0868649514 0.8109301904
H 1.9721404275 -0.7259278292 0.0997916517
H 1.9089115873 0.7826514895 0.3952382526
Cl -0.8264213132 0.2758334297 -1.5485022947
Na -0.5464362571 -0.2203809363 1.020435311
8

O 2.4030529682 0.1246803534 1.9095356708
H 2.7652966128 -0.5887567024 1.3628443585
H 2.6782524049 0.9430909913 1.4665743688
O -0.0723814346 1.6959251084 0.1129284819
H 0.7442250008 2.2172525942 0.1577236511
H -0.0328222036 1.2420753699 -0.7546122399
Cl -0.3061834489 -2.0289242353 0.0535855527
Na 0.1023780193 -0.0316320296 1.7639519037
8

O 0.8930555843 -2.1671927356 -1.8018052871
H 0.6094148929 -2.8842226095 -2.3752446226
H 0.1560764723 -2.0379020594 -1.159462102
O -0.8411317227 0.751919019 2.6813927855
H 0.0395715697 0.472638807 2.9480049667
H -1.1598399267 0.0344340228 2.0980816287
Cl -1.2517762203 -1.2385418993 0.216984731
Na -0.3185832408 1.0857739103 -0.7322726135
8

O -1.3480686649 -2.3914601421 0.1802396808
H -2.0522259731 -2.0123682433 0.7265128516
H -1.6291786122 -2.2341488761 -0.7343121499
O -3.0280536375 -0.5787525565 1.6639691928
H -3.6076960147 -0.6358613133 2.4268225052
H -2.220107941 -0.1144744493 1.9632500179
Cl -0.2707857671 0.8013734273 2.0694651766
Na 0.6209213187 -1.2263130412 0.5286253868
8

O -0.2693807675 -0.1463264411 1.6194253416
H 0.1954880997 0.692437385 1.7571831327
H -1.0739111423 0.0907937769 1.1267301932
O 2.6532196718 0.860040942 -0.344053794
H 1.9527852381 0.6629895281 -0.9850659635
H 2.2475915649 1.4861479353 0.2775773129
Cl -2.3446582351 0.2903645659 -0.7612961474
Na 0.5878587738 -1.758993868 0.2416905432
8

O 2.4030529682 0.1246803534 1.9095356708
H 2.7652966128 -0.5887567024 1.3628443585
H 2.6782524049 0.9430909913 1.4665743688
O -0.0723814346 1.6959251084 0.1129284819
H 0.7442250008 2.2172525942 0.1577236511
H -0.0328222036 1.2420753699 -0.7546122399
Cl -0.3061834489 -2.0289242353 0.0535855527
Na 0.1023780193 -0.0316320296 1.7639519037
8

O 2.4030529682 0.1246803534 1.9095356708
H 2.7652966128 -0.5887567024 1.3628443585
H 2.6782524049 0.9430909913 1.4665743688
O 2.8090485668 -1.8557782654 -0.1445783283
H 3.2752140967 -2.691586049 -0.2189479389
H 1.8549248828 -2.0740281465 -0.1398649876
Cl -0.3061834489 -2.0289242353 0.0535855527
Na 0.1023780193 -0.0316320296 1.7639519037
8

O 2.1797482656 2.436631906 0.5774252733
H 1.703461546 1.9640048583 1.2746860663
H 2.5884751233 1.7357071124 0.039418289
O 0.096874311 0.8604837743 1.9067924603
H -0.1836227421 0.8219356081 2.8238938094
H 0.4776438263 -0.0277045984 1.7065157281
Cl 1.3029679705 -1.739496649 0.8715776009
Na -1.113155192 1.5181357328 -0.0124523373
8

O 2.9823817638 0.1839071729 -0.9388121304
H 3.8818558318 -0.0569996174 -1.1710424945
H 2.652936098 -0.5290339225 -0.3562194098
O 0.001304522 -0.0445338333 -1.3654446352
H 0.7775982906 0.2535637629 -1.8525428583
H 0.3716004542 -0.6896894902 -0.7240583851
Cl 1.3029679705 -1.739496649 0.8715776009
Na -1.113155192 1.5181357328 -0.0124523373
8

O 0.5228193734 -1.3675521891 -2.1560161008
H 1.2287230482 -0.7286591494 -2.3069105295
H 0.7065637573 -1.686748497 -1.2497181909
O -1.7561051192 -0.1223587671 -1.4833950425
H -2.5274488448 -0.3972702119 -1.9816437195
H -0.9838064417 -0.6109993338 -1.8621679421
Cl 0.9665168767 -1.4850198374 0.9387656014
Na -1.0720185192 0.0520045292 0.7512844654
8

O 0.0543825301 -0.1219805345 1.9294190066
H -0.2172874815 0.7938595241 2.0543544523
H 0.9406404666 -0.0377274188 1.534706895
O -2.9833843902 -0.4708397729 0.1674777091
H -3.9096668336 -0.5008594551 0.405619044
H -2.7803057656 0.4471366244 -0.1237572168
Cl 2.3011816847 0.2864694495 -0.2509124458
Na -0.873919261 -1.2975130053 0.1644386798
8

O 1.072215479 -2.0690753284 -1.200504563
H 1.3181252386 -2.5755809701 -1.9774000053
H 0.473228412 -1.3495843616 -1.5150751214
O 1.8274929125 -0.0868649514 0.8109301904
H 1.9721404275 -0.7259278292 0.0997916517
H 1.9089115873 0.7826514895 0.3952382526
Cl -0.8264213132 0.2758334297 -1.5485022947
Na -0.5464362571 -0.2203809363 1.020435311
8

O 0.4993008769 -1.757239267 -1.2337294089
H 0.3182809332 -0.9504145112 -1.7367004985
H -0.3667955234 -2.0075750235 -0.8563417821
O -1.857371576 -2.0765498875 0.1764179288
H -2.7320631476 -2.3510377316 -0.1056755509
H -1.9350052207 -1.1280844016 0.4021231441
Cl -1.621277328 1.0059419529 0.6267788926
Na 0.8269829162 0.6796698936 1.2684100495
8

O 0.4688232267 -0.3886895891 -1.7227470989
H 0.4905969801 -0.6481835601 -2.6466652553
H -0.4467498504 -0.0601977675 -1.5605527076
O -1.4618737819 -2.6531825859 -0.2992422587
H -2.1122303051 -3.2400251294 0.0901921975
H -1.9365559926 -1.8181591264 -0.4918492982
Cl -2.3446582351 0.2903645659 -0.7612961474
Na 0.5878587738 -1.758993868 0.2416905432
8

O -1.3480686649 -2.3914601421 0.1802396808
H -2.0522259731 -2.0123682433 0.7265128516
H -1.6291786122 -2.2341488761 -0.7343121499
O -1.9620738306 -1.1843000864 -2.3523328837
H -2.4312542545 -1.4155288728 -3.1561638028
H -2.4802084268 -0.4664926145 -1.9095028165
Cl -0.2707857671 0.8013734273 2.0694651766
Na 0.6209213187 -1.2263130412 0.5286253868
8

O -0.2012777267 -0.2381674175 -1.8903365453
H -0.0651747427 -0.6390874524 -2.7517560214
H 0.6962934163 -0.005641628 -1.5543562965
O 1.0568967422 -2.568161884 -0.0321657225
H 1.5115693685 -3.220785288 0.5034695419
H 1.6777290737 -1.817449608 -0.1246560068
Cl 2.3011816847 0.2864694495 -0.2509124458
Na -0.873919261 -1.2975130053 0.1644386798
8

O 0.0543825301 -0.1219805345 1.9294190066
H -0.2172874815 0.7938595241 2.0543544523
H 0.9406404666 -0.0377274188 1.534706895
O 1.0568967422 -2.568161884 -0.0321657225
H 1.5115693685 -3.220785288 0.5034695419
H 1.6777290737 -1.817449608 -0.1246560068
Cl 2.3011816847 0.2864694495 -0.2509124458
Na -0.873919261 -1.2975130053 0.1644386798
8

O 0.9117703317 2.4386090704 -0.318748172
H 1.1190520639 3.2148956375 -0.8430813196
H 0.3558643921 1.8550343731 -0.8898801936
O 1.072215479 -2.0690753284 -1.200504563
H 1.3181252386 -2.5755809701 -1.9774000053
H 0.473228412 -1.3495843616 -1.5150751214
Cl -0.8264213132 0.2758334297 -1.5485022947
Na -0.5464362571 -0.2203809363 1.020435311
8

O 0.5228193734 -1.3675521891 -2.1560161008
H 1.2287230482 -0.7286591494 -2.3069105295
H 0.7065637573 -1.686748497 -1.2497181909
O -1.7561051192 -0.1223587671 -1.4833950425
H -2.5274488448 -0.3972702119 -1.9816437195
H -0.9838064417 -0.6109993338 -1.8621679421
Cl 0.9665168767 -1.4850198374 0.9387656014
Na -1.0720185192 0.0520045292 0.7512844654
8

O 0.1274776009 -0.8778659766 -1.8910954475
H 0.700074689 -0.2312068135 -2.3103251109
H -0.7277871318 -0.419964623 -1.7701038915
O 0.8930363794 -0.1880634793 2.0803417899
H 1.0872387407 -0.3956755506 2.996296135
H 0.1720583149 0.4924631688 2.0918310461
Cl -2.3429401536 0.6397689024 -0.7663327675
Na 0.5968347844 -1.6487336884 0.2362496229
8

O -1.120882293 1.0891146289 0.4619305717
H -1.8257548843 1.7082063376 0.6690326932
H -1.4053819255 0.2249888005 0.83826081
O -0.6114132129 -2.563410372 -0.9529237877
H -0.4488365769 -3.4628564032 -1.2454167431
H 0.2691574541 -2.1714496074 -0.7393710745
Cl 1.8320847904 -0.9708459243 -0.1722276686
Na 1.1818765556 1.479857151 0.616758527
8

O 0.001304522 -0.0445338333 -1.3654446352
H 0.7775982906 0.2535637629 -1.8525428583
H 0.3716004542 -0.6896894902 -0.7240583851
O 0.096874311 0.8604837743 1.9067924603
H -0.1836227421 0.8219356081 2.8238938094
H 0.4776438263 -0.0277045984 1.7065157281
Cl 1.3029679705 -1.739496649 0.8715776009
Na -1.113155192 1.5181357328 -0.0124523373
8

O -0.0007304544 0.0470777394 -1.2850911476
H -0.5954588061 -0.5240066654 -1.7906427477
H 0.5601761415 -0.5625838677 -0.7584625117
O -0.7576300086 -0.1027198642 2.0684013
H -0.6649893489 0.0677346274 3.0080895927
H 0.0646090369 -0.5806394483 1.8006647769
Cl 1.5183494523 -1.6643844928 0.7954775749
Na -1.1891691232 1.3231885285 0.2831385664
8

O 1.8719972599 -2.6087880521 -2.1112104707
H 0.9581698611 -2.7180699177 -2.4051847285
H 1.9266080679 -1.6562580479 -1.9227243501
O -1.0533355337 -2.1366302531 -2.511733932
H -1.6691889787 -2.4709961071 -3.1672076696
H -1.1979804388 -1.1734180658 -2.4631245445
Cl 0.011319912 0.9353067613 2.2766639492
Na 0.8996205344 -1.2835077701 1.0726237646
8

O 0.1274776009 -0.8778659766 -1.8910954475
H 0.700074689 -0.2312068135 -2.3103251109
H -0.7277871318 -0.419964623 -1.7701038915
O 0.8930363794 -0.1880634793 2.0803417899
H 1.0872387407 -0.3956755506 2.996296135
H 0.1720583149 0.4924631688 2.0918310461
Cl -2.3429401536 0.6397689024 -0.7663327675
Na 0.5968347844 -1.6487336884 0.2362496229
8

O -2.8283276845 1.5417943445 0.8398976134
H -3.0492441631 0.761647944 0.3070710298
H -1.9803226547 1.8554648799 0.487140067
O 2.8090485668 -1.8557782654 -0.1445783283
H 3.2752140967 -2.691586049 -0.2189479389
H 1.8549248828 -2.0740281465 -0.1398649876
Cl -0.3061834489 -2.0289242353 0.0535855527
Na 0.1023780193 -0.0316320296 1.7639519037
8

O -2.5387702719 -0.3425730669 1.8218252009
H -3.3378996578 -0.1507510973 2.3167285738
H -2.5543673803 0.2315826195 1.0199742788
O 0.2176632678 0.2543340292 1.9997321529
H 0.6588874161 -0.5975612494 1.8964329985
H -0.7160545405 0.0438430935 2.162851759
Cl -2.0768181291 1.2885671506 -0.7140434577
Na 0.3876679727 1.6392527061 0.0995121173
8

O -0.7576300086 -0.1027198642 2.0684013
H -0.6649893489 0.0677346274 3.0080895927
H 0.0646090369 -0.5806394483 1.8006647769
O -3.1830189313 0.6691465708 -0.6330345052
H -4.0972680926 0.9327969367 -0.7405790477
H -3.0628550279 -0.1591168806 -1.1365636384
Cl 1.5183494523 -1.6643844928 0.7954775749
Na -1.1891691232 1.3231885285 0.2831385664
8

O 0.0104473976 -0.2845817271 1.921853064
H -0.2900163595 0.6279098226 1.9868359014
H 0.9107259904 -0.1904263882 1.5593124353
O -1.9628723123 1.9594544216 -0.9157046119
H -2.3775491948 2.7329524906 -1.3019468698
H -1.200912565 2.2736965444 -0.3812684563
Cl 2.3198629807 0.2935593306 -0.1496906548
Na -0.8019278679 -1.4862391263 0.0898967347
8

O -0.0723814346 1.6959251084 0.1129284819
H 0.7442250008 2.2172525942 0.1577236511
H -0.0328222036 1.2420753699 -0.7546122399
O 0.0814978075 0.1615498042 -2.1858316114
H -0.0245603013 -0.6607980126 -1.6728465597
H -0.7158555241 0.2228031016 -2.7444777662
Cl -0.3061834489 -2.0289242353 0.0535855527
Na 0.1023780193 -0.0316320296 1.7639519037
8

O -1.9008093684 1.7901311473 -0.809077056
H -1.3821535654 1.3029974388 -1.4661476138
H -1.2262032557 2.2179789719 -0.2540689135
O -0.2012777267 -0.2381674175 -1.8903365453
H -0.0651747427 -0.6390874524 -2.7517560214
H 0.6962934163 -0.005641628 -1.5543562965
Cl 2.3011816847 0.2864694495 -0.2509124458
Na -0.873919261 -1.2975130053 0.1644386798
8

O -0.2693807675 -0.1463264411 1.6194253416
H 0.1954880997 0.692437385 1.7571831327
H -1.0739111423 0.0907937769 1.1267301932
O 2.6532196718 0.860040942 -0.344053794
H 1.9527852381 0.6629895281 -0.9850659635
H 2.2475915649 1.4861479353 0.2775773129
Cl -2.3446582351 0.2903645659 -0.7612961474
Na 0.5878587738 -1.758993868 0.2416905432
8

O -1.120882293 1.0891146289 0.4619305717
H -1.8257548843 1.7082063376 0.6690326932
H -1.4053819255 0.2249888005 0.83826081
O -0.6114132129 -2.563410372 -0.9529237877
H -0.4488365769 -3.4628564032 -1.2454167431
H 0.2691574541 -2.1714496074 -0.7393710745
Cl 1.8320847904 -0.9708459243 -0.1722276686
Na 1.1818765556 1.479857151 0.616758527
8

O -3.0462167169 0.0027124071 0.1320376398
H -3.9902636614 0.154366467 0.2073678162
H -2.6425186664 0.3121272045 0.9641975003
O 0.1850462846 -1.0188014489 -2.5471116823
H 0.4164815512 -1.0837192144 -3.4739628349
H -0.4038861347 -0.2321592579 -2.448912359
Cl 0.9529737935 1.5571031191 0.4906236507
Na 1.0726857805 -0.9917065082 -0.4541769653
8

O 1.072215479 -2.0690753284 -1.200504563
H 1.3181252386 -2.5755809701 -1.9774000053
H 0.473228412 -1.3495843616 -1.5150751214
O 1.8274929125 -0.0868649514 0.8109301904
H 1.9721404275 -0.7259278292 0.0997916517
H 1.9089115873 0.7826514895 0.3952382526
Cl -0.8264213132 0.2758334297 -1.5485022947
Na -0.5464362571 -0.2203809363 1.020435311
8

O 0.4993008769 -1.757239267 -1.2337294089
H 0.3182809332 -0.9504145112 -1.7367004985
H -0.3667955234 -2.0075750235 -0.8563417821
O -0.2009803366 0.961059514 -2.0836755061
H -0.6443189697 1.3755668803 -2.8270210656
H -0.8098003446 1.0426371515 -1.3122163996
Cl -1.621277328 1.0059419529 0.6267788926
Na 0.8269829162 0.6796698936 1.2684100495
8

O 1.617976787 -1.5276569065 1.4138739285
H 2.0446787826 -2.1793986648 0.8479680933
H 0.6674309215 -1.5886045899 1.1818181026
O -0.8411317227 0.751919019 2.6813927855
H 0.0395715697 0.472638807 2.9480049667
H -1.1598399267 0.0344340228 2.0980816287
Cl -1.2517762203 -1.2385418993 0.216984731
Na -0.3185832408 1.0857739103 -0.7322726135
8

O -1.1629942674 -0.6168141325 -2.2406644082
H -1.7765496162 -0.6036245089 -2.978694997
H -1.5756283713 -0.0768578252 -1.528829517
O 2.1586194905 -2.3747384555 0.0191302387
H 2.7381628805 -3.0768334367 -0.2771712758
H 1.2383604002 -2.6512622233 -0.2065328398
Cl -2.1065555901 1.0280600487 0.1845826976
Na 1.9918274192 -0.130983272 0.2709533748
8

O 0.0543825301 -0.1219805345 1.9294190066
H -0.2172874815 0.7938595241 2.0543544523
H 0.9406404666 -0.0377274188 1.534706895
O 1.0568967422 -2.568161884 -0.0321657225
H 1.5115693685 -3.220785288 0.5034695419
H 1.6777290737 -1.817449608 -0.1246560068
Cl 2.3011816847 0.2864694495 -0.2509124458
Na -0.873919261 -1.2975130053 0.1644386798
8

O -0.2693807675 -0.1463264411 1.6194253416
H 0.1954880997 0.692437385 1.7571831327
H -1.0739111423 0.0907937769 1.1267301932
O -1.0003347776 3.0654757357 -0.2889046079
H -1.6773829125 3.7401004674 -0.2073871801
H -1.4803390152 2.2357784315 -0.4894907934
Cl -2.3446582351 0.2903645659 -0.7612961474
Na 0.5878587738 -1.758993868 0.2416905432
8

O 0.4688232267 -0.3886895891 -1.7227470989
H 0.4905969801 -0.6481835601 -2.6466652553
H -0.4467498504 -0.0601977675 -1.5605527076
O -0.2693807675 -0.1463264411 1.6194253416
H 0.1954880997 0.692437385 1.7571831327
H -1.0739111423 0.0907937769 1.1267301932
Cl -2.3446582351 0.2903645659 -0.7612961474
Na 0.5878587738 -1.758993868 0.2416905432
8

O -1.0904543308 -2.2641995529 0.3792694038
H -1.8459667537 -1.6940335395 0.5769930328
H -1.150833549 -2.4453652736 -0.5702993335
O 1.3545892999 -0.1282481104 -0.9570639106
H 0.4450807424 0.0707858235 -1.2418224565
H 1.720822955 0.7491535033 -0.7211407603
Cl 0.011319912 0.9353067613 2.2766639492
Na 0.8996205344 -1.2835077701 1.0726237646
8

O -3.1830189313 0.6691465708 -0.6330345052
H -4.0972680926 0.9327969367 -0.7405790477
H -3.0628550279 -0.1591168806 -1.1365636384
O -2.2836040623 -1.6599747957 -1.766542397
H -2.6267668683 -2.3184363836 -2.3735930779
H -2.0222299804 -2.1340992631 -0.9370412998
Cl 1.5183494523 -1.6643844928 0.7954775749
Na -1.1891691232 1.3231885285 0.2831385664
8

O 2.1797482656 2.436631906 0.5774252733
H 1.703461546 1.9640048583 1.2746860663
H 2.5884751233 1.7357071124 0.039418289
O 0.096874311 0.8604837743 1.9067924603
H -0.1836227421 0.8219356081 2.8238938094
H 0.4776438263 -0.0277045984 1.7065157281
Cl 1.3029679705 -1.739496649 0.8715776009
Na -1.113155192 1.5181357328 -0.0124523373
8

O 2.4030529682 0.1246803534 1.9095356708
H 2.7652966128 -0.5887567024 1.3628443585
H 2.6782524049 0.9430909913 1.4665743688
O 2.8090485668 -1.8557782654 -0.1445783283
H 3.2752140967 -2.691586049 -0.2189479389
H 1.8549248828 -2.0740281465 -0.1398649876
Cl -0.3061834489 -2.0289242353 0.0535855527
Na 0.1023780193 -0.0316320296 1.7639519037
