2

Na -2.5999999999999996 0.0 0.0
F 4.5395644696 0.0 0.0
2

Na -1.9500000000000006 0.0 0.0
F 3.8895644696000007 0.0 0.0
2

Na -0.6999999999999996 0.0 0.0
F 2.6395644696 0.0 0.0
2

Na -1.15 0.0 0.0
F 3.0895644696 0.0 0.0
2

Na -0.6499999999999999 0.0 0.0
F 2.5895644696 0.0 0.0
2

Na -0.85 0.0 0.0
F 2.7895644696 0.0 0.0
2

Na -1.6999999999999995 0.0 0.0
F 3.6395644696 0.0 0.0
2

Na 0.14999999999999994 0.0 0.0
F 1.7895644696000002 0.0 0.0
2

Na -0.20000000000000007 0.0 0.0
F 2.1395644696000002 0.0 0.0
2

Na -1.4000000000000001 0.0 0.0
F 3.3395644696 0.0 0.0
2

Na 0.25 0.0 0.0
F 1.6895644696 0.0 0.0
2

Na -0.10000000000000026 0.0 0.0
F 2.0395644696 0.0 0.0
2

Na -0.9500000000000003 0.0 0.0
F 2.8895644696000002 0.0 0.0
2

Na -0.7500000000000002 0.0 0.0
F 2.6895644696 0.0 0.0
2

Na -2.1500000000000004 0.0 0.0
F 4.0895644696 0.0 0.0
2

Na -2.2500000000000004 0.0 0.0
F 4.1895644696000005 0.0 0.0
2

Na -0.5500000000000002 0.0 0.0
F 2.4895644696000003 0.0 0.0
2

Na -1.6 0.0 0.0
F 3.5395644696 0.0 0.0
2

Na 0.14999999999999994 0.0 0.0
F 1.7895644696000002 0.0 0.0
2

Na -0.10000000000000026 0.0 0.0
F 2.0395644696 0.0 0.0
2

Na -1.9000000000000001 0.0 0.0
F 3.8395644696 0.0 0.0
2

Na -2.000000000000001 0.0 0.0
F 3.939564469600001 0.0 0.0
2

Na -1.3499999999999999 0.0 0.0
F 3.2895644696 0.0 0.0
2

Na -1.6 0.0 0.0
F 3.5395644696 0.0 0.0
2

Na -1.3000000000000003 0.0 0.0
F 3.2395644696000003 0.0 0.0
2

Na -1.1000000000000003 0.0 0.0
F 3.0395644696 0.0 0.0
2

Na -1.5500000000000005 0.0 0.0
F 3.4895644696000003 0.0 0.0
2

Na -2.650000000000001 0.0 0.0
F 4.589564469600001 0.0 0.0
2

Na -1.2500000000000007 0.0 0.0
F 3.1895644696000005 0.0 0.0
2

Na -2.000000000000001 0.0 0.0
F 3.939564469600001 0.0 0.0
2

Na -0.3000000000000003 0.0 0.0
F 2.2395644696000003 0.0 0.0
2

Na -1.6 0.0 0.0
F 3.5395644696 0.0 0.0
2

Na -0.9500000000000003 0.0 0.0
F 2.8895644696000002 0.0 0.0
2

Na 0.25 0.0 0.0
F 1.6895644696 0.0 0.0
2

Na -0.85 0.0 0.0
F 2.7895644696 0.0 0.0
2

Na -0.05000000000000013 0.0 0.0
F 1.9895644696 0.0 0.0
2

Na -1.2500000000000007 0.0 0.0
F 3.1895644696000005 0.0 0.0
2

Na -0.3000000000000003 0.0 0.0
F 2.2395644696000003 0.0 0.0
2

Na -1.6999999999999995 0.0 0.0
F 3.6395644696 0.0 0.0
2

Na -2.1 0.0 0.0
F 4.0395644696 0.0 0.0
2

Na -2.05 0.0 0.0
F 3.9895644696 0.0 0.0
2

Na -1.65 0.0 0.0
F 3.5895644696 0.0 0.0
2

Na -0.05000000000000013 0.0 0.0
F 1.9895644696 0.0 0.0
2

Na -0.6999999999999996 0.0 0.0
F 2.6395644696 0.0 0.0
2

Na -2.2500000000000004 0.0 0.0
F 4.1895644696000005 0.0 0.0
2

Na -2.1500000000000004 0.0 0.0
F 4.0895644696 0.0 0.0
2

Na -0.5 0.0 0.0
F 2.4395644696 0.0 0.0
2

Na 0.19999999999999987 0.0 0.0
F 1.7395644696 0.0 0.0
2

Na -0.8000000000000003 0.0 0.0
F 2.7395644696000003 0.0 0.0
2

Na 0.3000000000000001 0.0 0.0
F 1.6395644696 0.0 0.0
5

O -2.3220390409 -0.6649115307 -1.0753346881
H -1.7994624507 -0.3042960079 -1.8088756273
H -1.8762109121 -1.4886181281 -0.8007857674
F -0.5576049672 2.1582834124 -0.2952218758
Na -1.8400200477 0.7529483397 0.6319483479
5

O 1.020412723 -2.5212647956 -0.6301457194
H 0.9097518581 -3.4645302481 -0.7624365672
H 0.1344402054 -2.0981956264 -0.7902573091
F -1.1372469189 -1.149011033 -0.9353803757
Na -0.8217443732 -0.3383523014 1.0597653419
5

O -1.9026164911 -2.0155859828 0.9228092164
H -2.2278097138 -2.6705702739 1.5423327659
H -1.2120403816 -2.4562883836 0.3645525746
F -0.3220622091 -0.0123330944 -1.2916941435
Na -0.7183778012 0.0174204451 0.9262671768
5

O 1.0148742571 3.1799253467 2.2160125525
H 1.0790376753 4.1359416223 2.2072346894
H 1.8372705295 2.8509238403 1.7775810434
F -0.1261181623 -0.1597874274 1.2942813089
Na -0.7008192035 1.7365265938 2.0689280611
5

O -2.6634510626 1.9644100724 -0.7353894894
H -3.2044840842 2.7477047532 -0.8350534794
H -3.0533755836 1.422954474 -0.0117361386
F -0.251628295 -1.0205578707 -1.2422488744
Na -0.5705724579 1.0840265395 -0.6477870821
5

O -0.4944407289 1.7764736195 1.6537547588
H -0.2819917757 2.45650642 2.2935344935
H -0.5075945414 0.9201976045 2.1421299893
F 0.3111262656 -1.1341106038 0.0564607416
Na 0.134906064 1.0531738148 -0.4201945495
5

O -0.2571454602 1.9294980917 0.534927517
H 0.6003361869 1.8937999235 0.0779472599
H -0.9354623535 1.9990500681 -0.1645056272
F -1.1372469189 -1.149011033 -0.9353803757
Na -0.8217443732 -0.3383523014 1.0597653419
5

O 2.14297578 0.6363054497 -0.8779158753
H 3.0370606416 0.3014025953 -0.7841691632
H 1.6528752139 0.3931138764 -0.0446578645
F 0.5800566185 0.0351649622 1.0513643919
Na -1.2362727044 -0.0603265178 -0.1731346743
5

O 2.14297578 0.6363054497 -0.8779158753
H 3.0370606416 0.3014025953 -0.7841691632
H 1.6528752139 0.3931138764 -0.0446578645
F 0.5800566185 0.0351649622 1.0513643919
Na -1.2362727044 -0.0603265178 -0.1731346743
5

O -0.2571454602 1.9294980917 0.534927517
H 0.6003361869 1.8937999235 0.0779472599
H -0.9354623535 1.9990500681 -0.1645056272
F -1.1372469189 -1.149011033 -0.9353803757
Na -0.8217443732 -0.3383523014 1.0597653419
5

O -1.6544656995 2.0265255912 -0.9971620686
H -2.3608776914 2.6730241333 -0.9697617104
H -0.813509172 2.5320676606 -0.8792113713
F 0.5800566185 0.0351649622 1.0513643919
Na -1.2362727044 -0.0603265178 -0.1731346743
5

O -1.6544656995 2.0265255912 -0.9971620686
H -2.3608776914 2.6730241333 -0.9697617104
H -0.813509172 2.5320676606 -0.8792113713
F 0.5800566185 0.0351649622 1.0513643919
Na -1.2362727044 -0.0603265178 -0.1731346743
5

O 0.3316617252 1.2179410535 -2.7120076547
H 0.7739308885 1.8681897106 -3.2601294955
H 0.6297249022 1.3652131408 -1.7718182507
F 0.8844448431 1.2980888979 -0.2235508606
Na 1.2275917881 -0.8682401149 0.0191207811
5

O 0.3316617252 1.2179410535 -2.7120076547
H 0.7739308885 1.8681897106 -3.2601294955
H 0.6297249022 1.3652131408 -1.7718182507
F 0.8844448431 1.2980888979 -0.2235508606
Na 1.2275917881 -0.8682401149 0.0191207811
5

O 2.2554759801 -1.051285332 -1.8915022062
H 2.4765144526 -1.6203582868 -2.630414524
H 1.3258536566 -1.2664086659 -1.6172375912
F -0.1183957802 -1.3367277319 -0.9471667048
Na -0.5965070112 0.9099983523 -0.6364629761
5

O 0.4203928422 -2.1368968536 1.0492187001
H -0.1261441918 -2.8967024077 1.2625923542
H 0.1577411925 -1.8586154266 0.1312744142
F -0.3153113257 -1.1189726079 -1.1986842667
Na -0.6322953009 0.9548821738 -0.6281922582
5

O -0.4827732275 -0.732877404 1.6256893171
H -0.3256293498 -0.9014650761 2.5555361978
H -0.009525419 -1.454398022 1.1096203378
F 0.7876237036 -2.1440709335 -0.0072567301
Na 0.5028585681 0.7225544406 0.0058830833
5

O -1.3696478757 0.3726230618 -1.1765913311
H -2.2124138577 0.20466236 -0.7284605953
H -1.1664536052 -0.4692185697 -1.6328968926
F 0.801467568 -1.3040146307 0.9877043324
Na 0.1172935825 0.8196609924 0.6615545635
5

O 2.3180626342 -2.2730018987 0.7792823918
H 2.4258823798 -3.0192734082 0.1871465355
H 1.9615881746 -1.5330128904 0.2307467486
F 1.0760015918 -0.3069642469 -0.389526622
Na -0.4603636594 -0.165464593 1.1957109514
5

O -0.7636464912 -2.2313254099 -2.5839132403
H -0.8626579221 -2.3940111562 -3.5242146859
H -1.2205124732 -1.3805630663 -2.3989420382
F -0.9540726837 0.3267381874 0.4612092569
Na -0.3449722362 2.0719822686 1.5564634004
5

O 1.46234954 0.7987492582 -0.6617953328
H 1.8398652626 -0.0437725112 -0.9800909839
H 0.5995194187 0.5209905383 -0.2937036136
F -0.9540726837 0.3267381874 0.4612092569
Na -0.3449722362 2.0719822686 1.5564634004
5

O 0.8586734321 2.1145842191 -1.1259849071
H 0.8681195005 2.4585349456 -2.0201546368
H 1.2456031674 1.1803354274 -1.1704326249
F 1.5090754495 -0.2887155038 -1.0963771002
Na -0.2438186685 -0.9703338318 -0.0461801537
5

O 1.020412723 -2.5212647956 -0.6301457194
H 0.9097518581 -3.4645302481 -0.7624365672
H 0.1344402054 -2.0981956264 -0.7902573091
F -1.1372469189 -1.149011033 -0.9353803757
Na -0.8217443732 -0.3383523014 1.0597653419
5

O -2.1591467295 1.3346231639 -1.376899231
H -1.9633713745 1.5223487444 -2.2992115551
H -1.9342815199 0.3882708771 -1.2813725539
F -1.1372469189 -1.149011033 -0.9353803757
Na -0.8217443732 -0.3383523014 1.0597653419
5

O -2.261339564 -0.5083094641 -2.0209346684
H -2.3222913373 -0.6260784399 -2.9701666345
H -1.49348467 -1.0488487005 -1.7051109827
F -0.1183957802 -1.3367277319 -0.9471667048
Na -0.5965070112 0.9099983523 -0.6364629761
5

O -2.5930079075 -0.0026080089 0.0424363517
H -3.5191322591 -0.0022610048 0.291064409
H -2.0664631379 -0.0029090557 0.8822479188
F 2.0225315705 0.001339489 -0.0670271133
Na 0.674535223 0.0027816153 -1.7170032874
5

O 1.020412723 -2.5212647956 -0.6301457194
H 0.9097518581 -3.4645302481 -0.7624365672
H 0.1344402054 -2.0981956264 -0.7902573091
F -1.1372469189 -1.149011033 -0.9353803757
Na -0.8217443732 -0.3383523014 1.0597653419
5

O -1.8065924579 -0.411369583 2.3332607184
H -1.7088125293 -0.4264732724 3.2864333845
H -1.0151230655 0.0559614585 1.97854586
F 0.2811977002 0.5887495359 1.1114198512
Na -0.1095355703 0.1583614908 -1.0369699784
5

O 1.020412723 -2.5212647956 -0.6301457194
H 0.9097518581 -3.4645302481 -0.7624365672
H 0.1344402054 -2.0981956264 -0.7902573091
F -1.1372469189 -1.149011033 -0.9353803757
Na -0.8217443732 -0.3383523014 1.0597653419
5

O 2.14297578 0.6363054497 -0.8779158753
H 3.0370606416 0.3014025953 -0.7841691632
H 1.6528752139 0.3931138764 -0.0446578645
F 0.5800566185 0.0351649622 1.0513643919
Na -1.2362727044 -0.0603265178 -0.1731346743
5

O -1.7680330422 2.5317429851 -0.1968346797
H -2.0024067054 3.4596511478 -0.2482421693
H -0.7798519912 2.4650851299 -0.315789477
F 0.6905909643 1.9702745542 -0.41728608
Na 0.7899667883 0.1660835159 0.9727502942
5

O 2.1354189758 0.5715033859 1.7894042897
H 2.4724193446 -0.2470760511 1.3983901024
H 1.692564845 1.0378694021 1.0485938277
F 0.4766453085 1.6882794727 -0.0040056318
Na -0.9552013152 2.0928757672 1.5087126321
5

O 0.3316617252 1.2179410535 -2.7120076547
H 0.7739308885 1.8681897106 -3.2601294955
H 0.6297249022 1.3652131408 -1.7718182507
F 0.8844448431 1.2980888979 -0.2235508606
Na 1.2275917881 -0.8682401149 0.0191207811
5

O 0.4031459604 -0.2683433006 -1.738444061
H 1.318672166 -0.5813958165 -1.8422243531
H 0.4979704059 0.6607441904 -1.4266625232
F 0.6905909643 1.9702745542 -0.41728608
Na 0.7899667883 0.1660835159 0.9727502942
5

O -3.3092400273 -0.3987786528 0.780994771
H -4.2248126658 -0.683347245 0.757531397
H -2.763139474 -1.201607653 0.9158964717
F 0.801467568 -1.3040146307 0.9877043324
Na 0.1172935825 0.8196609924 0.6615545635
5

O 1.46234954 0.7987492582 -0.6617953328
H 1.8398652626 -0.0437725112 -0.9800909839
H 0.5995194187 0.5209905383 -0.2937036136
F -0.9540726837 0.3267381874 0.4612092569
Na -0.3449722362 2.0719822686 1.5564634004
5

O 1.7617901743 1.4662376925 2.1302156456
H 2.0606205289 1.2566780296 1.2311649201
H 1.8347664973 0.6245729582 2.6172911887
F -0.9540726837 0.3267381874 0.4612092569
Na -0.3449722362 2.0719822686 1.5564634004
5

O -0.96438575 2.4498142041 0.0139091802
H -1.2716931654 3.3558010109 0.0233390095
H -1.752439941 1.8617417116 0.0140560841
F 0.7876237036 -2.1440709335 -0.0072567301
Na 0.5028585681 0.7225544406 0.0058830833
5

O -0.6108026855 -1.7171085989 0.8927937173
H -0.5805409418 -1.0993527934 1.6368270026
H -0.7616764073 -1.1627289517 0.1047652857
F 0.4766453085 1.6882794727 -0.0040056318
Na -0.9552013152 2.0928757672 1.5087126321
5

O 1.1104232931 -1.6167635874 0.1586460147
H 2.0216937395 -1.8999968585 0.2452918405
H 0.9833689027 -0.8399938425 0.7581772618
F 0.2811977002 0.5887495359 1.1114198512
Na -0.1095355703 0.1583614908 -1.0369699784
5

O -1.9026164911 -2.0155859828 0.9228092164
H -2.2278097138 -2.6705702739 1.5423327659
H -1.2120403816 -2.4562883836 0.3645525746
F -0.3220622091 -0.0123330944 -1.2916941435
Na -0.7183778012 0.0174204451 0.9262671768
5

O -2.5590221159 -2.092851724 -0.3211563933
H -3.1345014145 -2.5025271046 -0.9691824151
H -1.7554583709 -1.7873640587 -0.8061856037
F -0.3153113257 -1.1189726079 -1.1986842667
Na -0.6322953009 0.9548821738 -0.6281922582
5

O 1.1104232931 -1.6167635874 0.1586460147
H 2.0216937395 -1.8999968585 0.2452918405
H 0.9833689027 -0.8399938425 0.7581772618
F 0.2811977002 0.5887495359 1.1114198512
Na -0.1095355703 0.1583614908 -1.0369699784
5

O 1.0404285318 1.9435593344 -1.8549915127
H 1.6413058082 2.1798629017 -2.561990838
H 1.3788937716 2.371048737 -1.0347993193
F 0.2811977002 0.5887495359 1.1114198512
Na -0.1095355703 0.1583614908 -1.0369699784
5

O -2.811439847 1.8722779642 1.2508272608
H -3.5414757042 2.4661214364 1.0739644278
H -2.8227267307 1.1838970204 0.5484923261
F -0.1261181623 -0.1597874274 1.2942813089
Na -0.7008192035 1.7365265938 2.0689280611
5

O -2.420438993 0.6931743237 0.3198668921
H -3.2934945019 0.3606789247 0.106385373
H -2.101168916 1.165737113 -0.4873310144
F 1.0760015918 -0.3069642469 -0.389526622
Na -0.4603636594 -0.165464593 1.1957109514
5

O 1.5220912164 -0.3108440129 2.0112298488
H 1.7805825703 -1.0160642873 1.3939560258
H 1.7386026727 0.5225590521 1.5505209454
F -0.5576049672 2.1582834124 -0.2952218758
Na -1.8400200477 0.7529483397 0.6319483479
5

O -2.9894331815 -0.1489182097 -1.149554566
H -3.0354403018 -0.9828325952 -0.6652466361
H -2.0649002711 -0.1206599494 -1.4734682051
F -0.3220622091 -0.0123330944 -1.2916941435
Na -0.7183778012 0.0174204451 0.9262671768
5

O 1.5220912164 -0.3108440129 2.0112298488
H 1.7805825703 -1.0160642873 1.3939560258
H 1.7386026727 0.5225590521 1.5505209454
F -0.5576049672 2.1582834124 -0.2952218758
Na -1.8400200477 0.7529483397 0.6319483479
5

O -1.4757378063 -2.4531291127 0.8885071413
H -1.5117006206 -3.1969885719 1.4931527438
H -0.5713360125 -2.0430646896 0.9998671233
F 0.801467568 -1.3040146307 0.9877043324
Na 0.1172935825 0.8196609924 0.6615545635
8

O -0.7396718012 0.6696970603 1.8059758776
H -1.0639232849 0.7494615163 2.7032570592
H -1.5064870181 0.3868320962 1.2226120667
O -0.7382869461 0.6360754696 -1.8188138192
H -1.0624189347 0.7042022952 -2.7170995
H -1.5063876254 0.3665820352 -1.2310871436
F -2.125860416 -0.3255795167 0.0021807162
Na -0.0246392501 -0.8851578058 0.0021393752
8

O -2.507384094 1.8923334834 -0.134007232
H -3.2243074558 2.3548282317 -0.5676496238
H -1.6702051458 2.1560749434 -0.5910740973
O -2.4746836744 -1.9331221651 -0.1236630052
H -3.1839542879 -2.4106754155 -0.55357016
H -1.6337165314 -2.1846541858 -0.5806649441
F 0.0267319422 0.0038844536 1.8325590018
Na -1.8627838836 -0.0125611758 0.8727094203
8

O -0.3094508524 1.4616304929 1.8612503188
H -1.2482316957 1.6247849598 1.6818071381
H -0.2843385285 0.5764464386 2.2570886143
O 3.4986332149 -1.1308550373 -0.4504397277
H 3.7792428035 -1.6514163616 -1.2049515606
H 2.5265662103 -1.2719015368 -0.357113177
F 0.9116602979 -1.0902829692 -0.1505944657
Na 0.7786593902 1.1464187039 -0.1707666036
8

O -1.40079179 1.3403430962 -0.4376713314
H -0.8634319467 1.853709232 0.1892431238
H -0.8538469391 1.2526550307 -1.2397733639
O 0.494106672 0.5704176858 -2.3260325931
H 0.5310531496 0.4730875695 -3.2786482832
H 0.4468775987 -0.3546044671 -1.9279922309
F 0.3222273186 -1.5808088434 -1.049105093
Na -1.1965464748 -0.9908604003 0.3522708872
8

O -0.3094508524 1.4616304929 1.8612503188
H -1.2482316957 1.6247849598 1.6818071381
H -0.2843385285 0.5764464386 2.2570886143
O -0.1990100011 -1.372743441 2.1595708503
H 0.2276516627 -2.0027900894 2.7428501125
H 0.3103046402 -1.3704329974 1.3079617753
F 0.9116602979 -1.0902829692 -0.1505944657
Na 0.7786593902 1.1464187039 -0.1707666036
8

O -3.3207690038 0.7978559321 0.806924254
H -4.2715321209 0.88248975 0.8964429942
H -3.1072331766 0.946308289 -0.1502824444
O -0.3949192269 -0.4085789384 -2.3223050777
H -0.0865098645 -1.3218257906 -2.3211563585
H 0.2244160261 0.0668857685 -1.7378031635
F 1.214571619 0.9528833864 -0.6010336906
Na 0.3559521211 0.4867747231 1.384952105
8

O 2.1703806052 1.2367701511 -0.6033123178
H 2.035537925 1.6514626873 -1.4609479944
H 1.7471867625 0.3525563843 -0.7102779133
O 2.0571487417 -2.0349588724 1.0630760734
H 3.0132540008 -2.0555508868 1.0000270485
H 1.7248969384 -1.7413429575 0.1865578195
F 0.7855916817 -0.9857026695 -0.9871661129
Na -0.9526535155 -0.8741699763 0.3134433057
8

O -1.6287809366 0.4802646697 -1.4334361006
H -1.9533750729 1.0893697564 -2.0982968504
H -0.6427225083 0.4591511953 -1.5067299249
O -1.6948042378 -1.0972785135 1.7620502482
H -1.7099008064 -1.6502574749 2.5432323589
H -1.7832471805 -1.6952420975 0.979563193
F 0.8351043473 0.3061845425 -0.8284065473
Na -0.6281443881 0.6457651878 0.8112134658
8

O 2.1354189758 0.5715033859 1.7894042897
H 2.4724193446 -0.2470760511 1.3983901024
H 1.692564845 1.0378694021 1.0485938277
O 2.2563138015 0.4679872137 -1.6482125218
H 2.3661401343 -0.2686117274 -1.0206573587
H 1.7019448291 1.1042759068 -1.1579943329
F 0.4766453085 1.6882794727 -0.0040056318
Na -0.9552013152 2.0928757672 1.5087126321
8

O -2.7517620879 -0.1799700076 0.4592363817
H -3.3028984292 0.2695217215 1.1008174695
H -1.9203364077 -0.4432687302 0.9275159387
O 0.2258179567 -1.8631190854 -0.8739221384
H -0.0343615698 -2.7769459979 -1.0012173152
H -0.1038218057 -1.5821423762 0.0388580529
F -0.398638261 -0.8346062191 1.3171591874
Na 1.1094274166 0.6081049667 1.0363723149
8

O 3.3557290017 -1.4089980062 -0.6434363353
H 4.2494103008 -1.2172652882 -0.9284522535
H 3.3282134897 -1.2962379375 0.3313211704
O -1.1763245194 0.9226928026 2.1059319774
H -1.0044274691 1.1511806194 3.0211816869
H -0.2973255942 0.9142198241 1.6355773079
F 0.9656713128 0.8541706923 0.7035811558
Na 1.1451197328 -0.7697934003 -0.8149269339
8

O -2.718411402 -1.2305262764 0.8070590275
H -1.9173159899 -1.444881853 1.3134557379
H -2.4701362883 -1.4134961768 -0.1147491445
O -0.0717436165 -1.4209319493 1.8469483807
H 0.4102692024 -2.085664865 2.3418998059
H 0.3329297376 -1.3782960286 0.9422848793
F 0.7624989787 -1.0229060051 -0.5630922839
Na 0.6489913967 1.211654367 -0.449049993
8

O 1.8505772665 -2.1334636454 -0.1407441397
H 2.5344834275 -2.7755133756 -0.3409504218
H 1.9387448676 -1.4009566154 -0.8051295252
O 2.0311638803 0.0033392989 -1.7096456101
H 2.1749030387 0.7300383994 -1.0801849282
H 1.2067192453 0.2451696643 -2.1672729367
F -0.5576049672 2.1582834124 -0.2952218758
Na -1.8400200477 0.7529483397 0.6319483479
8

O 1.9864291542 1.4104170304 0.855926518
H 1.1175354977 1.7882238718 1.0625950622
H 2.0975296994 1.5853579757 -0.1007220825
O -0.8733862113 1.8737453286 0.9136284518
H -1.4308516884 2.6530848968 0.9318066631
H -0.8284879209 1.5510456462 -0.0430906964
F -0.5787719607 0.8007923193 -1.3222079017
Na -0.3219962053 -1.1619931929 -0.5711400252
8

O -3.4117947362 -0.3756801772 0.1435240361
H -4.362892986 -0.3227227196 0.2365671293
H -3.0872889527 0.4962550802 -0.1354938081
O 2.3007175728 -1.3573502241 0.4955327171
H 2.9334929182 -2.0761118865 0.4580677222
H 1.5762330492 -1.5571436498 -0.171334563
F 0.3222273186 -1.5808088434 -1.049105093
Na -1.1965464748 -0.9908604003 0.3522708872
8

O 1.1583675322 1.6809105562 -0.0128748034
H 0.5649481034 1.6637458093 -0.7812339794
H 0.5630807735 1.6698509962 0.7544375217
O -0.7396718012 0.6696970603 1.8059758776
H -1.0639232849 0.7494615163 2.7032570592
H -1.5064870181 0.3868320962 1.2226120667
F -2.125860416 -0.3255795167 0.0021807162
Na -0.0246392501 -0.8851578058 0.0021393752
8

O 0.9107761715 -1.9425278851 1.1000882749
H 1.505187474 -2.5700642733 1.5141640698
H 1.4736434893 -1.2172203062 0.6942329429
O 0.9088052444 1.941149598 1.1050904294
H 1.5024761713 2.5684237537 1.5206041618
H 1.472382364 1.2174594842 0.6973733239
F 2.0225315705 0.001339489 -0.0670271133
Na 0.674535223 0.0027816153 -1.7170032874
8

O -0.6108026855 -1.7171085989 0.8927937173
H -0.5805409418 -1.0993527934 1.6368270026
H -0.7616764073 -1.1627289517 0.1047652857
O 2.2563138015 0.4679872137 -1.6482125218
H 2.3661401343 -0.2686117274 -1.0206573587
H 1.7019448291 1.1042759068 -1.1579943329
F 0.4766453085 1.6882794727 -0.0040056318
Na -0.9552013152 2.0928757672 1.5087126321
8

O -3.0752518317 -1.3683705704 0.2457498747
H -3.9820666356 -1.6797490708 0.266504797
H -2.9891399462 -0.775286713 -0.5410343508
O -1.3801287125 0.4391642718 1.6770273063
H -2.0394038293 -0.2293050007 1.4358542127
H -1.6857225645 1.2506102914 1.2394720237
F 0.6905909643 1.9702745542 -0.41728608
Na 0.7899667883 0.1660835159 0.9727502942
8

O 0.1762035287 -0.4904982151 2.1459052654
H 0.2977685048 0.4703624595 2.1718663339
H 1.0294710481 -0.8400350463 1.8384972564
O 2.3007175728 -1.3573502241 0.4955327171
H 2.9334929182 -2.0761118865 0.4580677222
H 1.5762330492 -1.5571436498 -0.171334563
F 0.3222273186 -1.5808088434 -1.049105093
Na -1.1965464748 -0.9908604003 0.3522708872
8

O 0.2629550037 2.6199416864 1.4977352736
H 0.0614933869 3.4770264777 1.87330711
H 1.0311839434 2.7405960058 0.8932543117
O 0.9859278276 -2.2995124229 -1.0460840518
H 1.4433052681 -2.5711242483 -1.8433131823
H 1.0589247889 -1.3178875964 -1.0050492415
F 0.8351043473 0.3061845425 -0.8284065473
Na -0.6281443881 0.6457651878 0.8112134658
8

O -0.8983139084 -0.0031018216 2.1084334507
H -0.3168202171 0.7646896658 1.9734117685
H -0.3157423486 -0.7697207973 1.9712822062
O 0.9088052444 1.941149598 1.1050904294
H 1.5024761713 2.5684237537 1.5206041618
H 1.472382364 1.2174594842 0.6973733239
F 2.0225315705 0.001339489 -0.0670271133
Na 0.674535223 0.0027816153 -1.7170032874
8

O -0.6907514499 -1.9047759671 0.9637974904
H -0.6542370368 -2.7601952978 1.3974484514
H -1.344017935 -1.9814341118 0.2370355364
O 1.6887530942 1.0844082654 2.3958138407
H 1.5304037132 1.4128376903 1.4932519499
H 0.7908326828 0.8969456164 2.7295729476
F 0.8844448431 1.2980888979 -0.2235508606
Na 1.2275917881 -0.8682401149 0.0191207811
8

O 0.2812593074 -2.4983903215 0.480860129
H 0.262228986 -3.4486827286 0.3563174362
H -0.6478216768 -2.2185206713 0.6811665782
O 2.5025774425 -0.9812635186 1.8944035925
H 1.8269321408 -1.6704326714 1.8933748693
H 2.0082325408 -0.1768375145 1.63474439
F 0.9656713128 0.8541706923 0.7035811558
Na 1.1451197328 -0.7697934003 -0.8149269339
8

O -2.4756781646 -1.0110532858 -0.7048199832
H -3.0065987851 -1.1961228964 -1.4810411595
H -2.4558569197 -0.0473560412 -0.5901095504
O -1.2404938567 1.2494804793 0.1729358927
H -1.4219468654 1.8088600448 0.9302878028
H -0.5223166556 1.7078332893 -0.3484102043
F 1.5090754495 -0.2887155038 -1.0963771002
Na -0.2438186685 -0.9703338318 -0.0461801537
8

O -1.6287809366 0.4802646697 -1.4334361006
H -1.9533750729 1.0893697564 -2.0982968504
H -0.6427225083 0.4591511953 -1.5067299249
O -1.7541035792 -2.3193642503 -0.6137660599
H -1.9781064305 -1.5307837896 -1.1271467221
H -0.8150877601 -2.4850935409 -0.8307536075
F 0.8351043473 0.3061845425 -0.8284065473
Na -0.6281443881 0.6457651878 0.8112134658
8

O 3.3557290017 -1.4089980062 -0.6434363353
H 4.2494103008 -1.2172652882 -0.9284522535
H 3.3282134897 -1.2962379375 0.3313211704
O -1.1763245194 0.9226928026 2.1059319774
H -1.0044274691 1.1511806194 3.0211816869
H -0.2973255942 0.9142198241 1.6355773079
F 0.9656713128 0.8541706923 0.7035811558
Na 1.1451197328 -0.7697934003 -0.8149269339
8

O 3.3557290017 -1.4089980062 -0.6434363353
H 4.2494103008 -1.2172652882 -0.9284522535
H 3.3282134897 -1.2962379375 0.3313211704
O -1.1763245194 0.9226928026 2.1059319774
H -1.0044274691 1.1511806194 3.0211816869
H -0.2973255942 0.9142198241 1.6355773079
F 0.9656713128 0.8541706923 0.7035811558
Na 1.1451197328 -0.7697934003 -0.8149269339
8

O 3.2423466707 -1.2955062695 -0.7943216829
H 3.8708124843 -1.342174775 -1.5159168329
H 3.5808562598 -0.6241950494 -0.1646725202
O -0.2579155562 -0.032672935 -2.2384630994
H -0.0409117846 0.9009011252 -2.0944332294
H -1.225676643 -0.0709456622 -2.186982092
F 1.0007506324 0.6074036431 0.8030553307
Na 0.9531790486 -1.1334413433 -0.6022343552
8

O 2.9120406939 1.3225133455 0.5960173643
H 3.5333452459 1.9484587277 0.9704869675
H 2.211185798 1.8382825867 0.1236482174
O 3.0422377702 -1.0409745835 -1.0624293526
H 2.7917067568 -1.6393229514 -0.346443398
H 3.3031593671 -0.2266660647 -0.6073822519
F 0.6905909643 1.9702745542 -0.41728608
Na 0.7899667883 0.1660835159 0.9727502942
8

O -1.4034049433 -1.6575137726 -0.0623581079
H -0.726646086 -2.1237209374 0.4490447441
H -1.607607743 -0.8783973291 0.4789048457
O 1.8811605823 -0.3005170034 -0.3800872216
H 1.7698308357 -1.0034003441 0.2814402518
H 1.9164227119 0.5350255811 0.1201674361
F -1.078402859 0.9795444583 0.7093010116
Na -0.3726413805 -0.0001738739 -1.3615072726
8

O -2.7517620879 -0.1799700076 0.4592363817
H -3.3028984292 0.2695217215 1.1008174695
H -1.9203364077 -0.4432687302 0.9275159387
O 0.2258179567 -1.8631190854 -0.8739221384
H -0.0343615698 -2.7769459979 -1.0012173152
H -0.1038218057 -1.5821423762 0.0388580529
F -0.398638261 -0.8346062191 1.3171591874
Na 1.1094274166 0.6081049667 1.0363723149
8

O -3.0752518317 -1.3683705704 0.2457498747
H -3.9820666356 -1.6797490708 0.266504797
H -2.9891399462 -0.775286713 -0.5410343508
O -1.3801287125 0.4391642718 1.6770273063
H -2.0394038293 -0.2293050007 1.4358542127
H -1.6857225645 1.2506102914 1.2394720237
F 0.6905909643 1.9702745542 -0.41728608
Na 0.7899667883 0.1660835159 0.9727502942
8

O 2.5025774425 -0.9812635186 1.8944035925
H 1.8269321408 -1.6704326714 1.8933748693
H 2.0082325408 -0.1768375145 1.63474439
O 3.3557290017 -1.4089980062 -0.6434363353
H 4.2494103008 -1.2172652882 -0.9284522535
H 3.3282134897 -1.2962379375 0.3313211704
F 0.9656713128 0.8541706923 0.7035811558
Na 1.1451197328 -0.7697934003 -0.8149269339
8

O -3.3207690038 0.7978559321 0.806924254
H -4.2715321209 0.88248975 0.8964429942
H -3.1072331766 0.946308289 -0.1502824444
O -0.3949192269 -0.4085789384 -2.3223050777
H -0.0865098645 -1.3218257906 -2.3211563585
H 0.2244160261 0.0668857685 -1.7378031635
F 1.214571619 0.9528833864 -0.6010336906
Na 0.3559521211 0.4867747231 1.384952105
8

O -1.4335902887 2.1209602478 0.5022306125
H -1.4619981441 3.0749069716 0.6005497068
H -0.5021357336 1.8870970925 0.2350322332
O 1.6887530942 1.0844082654 2.3958138407
H 1.5304037132 1.4128376903 1.4932519499
H 0.7908326828 0.8969456164 2.7295729476
F 0.8844448431 1.2980888979 -0.2235508606
Na 1.2275917881 -0.8682401149 0.0191207811
8

O -0.3094508524 1.4616304929 1.8612503188
H -1.2482316957 1.6247849598 1.6818071381
H -0.2843385285 0.5764464386 2.2570886143
O 3.4986332149 -1.1308550373 -0.4504397277
H 3.7792428035 -1.6514163616 -1.2049515606
H 2.5265662103 -1.2719015368 -0.357113177
F 0.9116602979 -1.0902829692 -0.1505944657
Na 0.7786593902 1.1464187039 -0.1707666036
8

O 1.8505772665 -2.1334636454 -0.1407441397
H 2.5344834275 -2.7755133756 -0.3409504218
H 1.9387448676 -1.4009566154 -0.8051295252
O 2.0311638803 0.0033392989 -1.7096456101
H 2.1749030387 0.7300383994 -1.0801849282
H 1.2067192453 0.2451696643 -2.1672729367
F -0.5576049672 2.1582834124 -0.2952218758
Na -1.8400200477 0.7529483397 0.6319483479
8

O 2.1354189758 0.5715033859 1.7894042897
H 2.4724193446 -0.2470760511 1.3983901024
H 1.692564845 1.0378694021 1.0485938277
O -0.2108893019 0.4282319997 2.9223869447
H -0.2622762999 0.2239043457 3.8576613245
H 0.7510444149 0.3891876015 2.6568252182
F 0.4766453085 1.6882794727 -0.0040056318
Na -0.9552013152 2.0928757672 1.5087126321
8

O -0.4964710061 0.9615974923 -2.5416581394
H -0.631825509 1.5297863391 -3.3020519235
H -0.5285591334 1.5429570693 -1.7289271312
O 1.8520209186 1.9203515031 0.3829671153
H 2.2864500989 2.7589128354 0.5467678605
H 0.8985437783 2.1206189239 0.1335128007
F -0.5576049672 2.1582834124 -0.2952218758
Na -1.8400200477 0.7529483397 0.6319483479
8

O -0.6108026855 -1.7171085989 0.8927937173
H -0.5805409418 -1.0993527934 1.6368270026
H -0.7616764073 -1.1627289517 0.1047652857
O 2.2563138015 0.4679872137 -1.6482125218
H 2.3661401343 -0.2686117274 -1.0206573587
H 1.7019448291 1.1042759068 -1.1579943329
F 0.4766453085 1.6882794727 -0.0040056318
Na -0.9552013152 2.0928757672 1.5087126321
8

O 3.5902382396 0.6861535924 1.0305506485
H 3.9058486649 0.5470327977 1.925065731
H 2.6059165333 0.7320029388 1.0836358394
O 3.2423466707 -1.2955062695 -0.7943216829
H 3.8708124843 -1.342174775 -1.5159168329
H 3.5808562598 -0.6241950494 -0.1646725202
F 1.0007506324 0.6074036431 0.8030553307
Na 0.9531790486 -1.1334413433 -0.6022343552
8

O -0.0901037484 2.3269236234 -1.1456647678
H 0.2610528065 1.5952989488 -1.6799955723
H 0.4966918049 2.3731783307 -0.3692679647
O 2.938135645 0.0230797974 -0.362428667
H 2.6726892256 0.7873447335 0.1773413955
H 2.68499185 -0.7434247242 0.1800831537
F 0.0267319422 0.0038844536 1.8325590018
Na -1.8627838836 -0.0125611758 0.8727094203
8

O 3.2423466707 -1.2955062695 -0.7943216829
H 3.8708124843 -1.342174775 -1.5159168329
H 3.5808562598 -0.6241950494 -0.1646725202
O -0.2579155562 -0.032672935 -2.2384630994
H -0.0409117846 0.9009011252 -2.0944332294
H -1.225676643 -0.0709456622 -2.186982092
F 1.0007506324 0.6074036431 0.8030553307
Na 0.9531790486 -1.1334413433 -0.6022343552
8

O -2.5047075676 0.3082880801 -1.7712276058
H -1.6459062244 0.0493168515 -2.131184872
H -2.3486458374 1.1726177105 -1.3496713795
O -0.5870376953 -2.5529305327 -0.3862582852
H -1.5006500389 -2.3833296246 -0.1051445001
H -0.3698192906 -1.811107329 -0.9780116667
F 0.6905909643 1.9702745542 -0.41728608
Na 0.7899667883 0.1660835159 0.9727502942
8

O -1.8065924579 -0.411369583 2.3332607184
H -1.7088125293 -0.4264732724 3.2864333845
H -1.0151230655 0.0559614585 1.97854586
O 1.0404285318 1.9435593344 -1.8549915127
H 1.6413058082 2.1798629017 -2.561990838
H 1.3788937716 2.371048737 -1.0347993193
F 0.2811977002 0.5887495359 1.1114198512
Na -0.1095355703 0.1583614908 -1.0369699784
8

O 3.3557290017 -1.4089980062 -0.6434363353
H 4.2494103008 -1.2172652882 -0.9284522535
H 3.3282134897 -1.2962379375 0.3313211704
O -1.1763245194 0.9226928026 2.1059319774
H -1.0044274691 1.1511806194 3.0211816869
H -0.2973255942 0.9142198241 1.6355773079
F 0.9656713128 0.8541706923 0.7035811558
Na 1.1451197328 -0.7697934003 -0.8149269339
8

O -1.0270211538 2.3298575641 1.595569665
H -0.8879963681 2.8463815186 0.7873269553
H -1.9213355692 1.9619387872 1.5097659255
O -0.2897749773 3.0357672119 -1.0611917233
H 0.1183705209 3.7507735405 -1.5522843366
H 0.3831698763 2.3182061525 -0.9804057869
F 1.214571619 0.9528833864 -0.6010336906
Na 0.3559521211 0.4867747231 1.384952105
8

O -0.9119016537 -2.6466976715 0.2763901308
H -1.0103467278 -2.225512579 1.1390519393
H 0.0401437586 -2.6008582518 0.0845062908
O 1.8520209186 1.9203515031 0.3829671153
H 2.2864500989 2.7589128354 0.5467678605
H 0.8985437783 2.1206189239 0.1335128007
F -0.5576049672 2.1582834124 -0.2952218758
Na -1.8400200477 0.7529483397 0.6319483479
8

O -2.7517620879 -0.1799700076 0.4592363817
H -3.3028984292 0.2695217215 1.1008174695
H -1.9203364077 -0.4432687302 0.9275159387
O 0.4315638034 2.2563728246 -0.3240098683
H 0.5555056121 3.1091635842 -0.7399020092
H -0.1854211454 1.7368200705 -0.9028966759
F -0.398638261 -0.8346062191 1.3171591874
Na 1.1094274166 0.6081049667 1.0363723149
