2

Na 0.09999999999999983 0.0 0.0
F 1.8395644696000002 0.0 0.0
2

Na 0.05000000000000013 0.0 0.0
F 1.8895644696 0.0 0.0
2

Na 0.0 0.0 0.0
F 1.9395644696 0.0 0.0
2

Na -0.14999999999999994 0.0 0.0
F 2.0895644696 0.0 0.0
2

Na -0.2500000000000002 0.0 0.0
F 2.1895644696 0.0 0.0
2

Na -0.35000000000000003 0.0 0.0
F 2.2895644696 0.0 0.0
2

Na -0.39999999999999974 0.0 0.0
F 2.3395644696 0.0 0.0
2

Na -0.4500000000000003 0.0 0.0
F 2.3895644696000002 0.0 0.0
2

Na -0.6000000000000002 0.0 0.0
F 2.5395644696 0.0 0.0
2

Na -0.8999999999999997 0.0 0.0
F 2.8395644696 0.0 0.0
2

Na -1.0000000000000004 0.0 0.0
F 2.9395644696000005 0.0 0.0
2

Na -1.05 0.0 0.0
F 2.9895644696000003 0.0 0.0
2

Na -1.2 0.0 0.0
F 3.1395644696000002 0.0 0.0
2

Na -1.4500000000000002 0.0 0.0
F 3.3895644696000002 0.0 0.0
2

Na -1.5 0.0 0.0
F 3.4395644696 0.0 0.0
2

Na -1.7500000000000007 0.0 0.0
F 3.6895644696000005 0.0 0.0
2

Na -1.7999999999999998 0.0 0.0
F 3.7395644696 0.0 0.0
2

Na -1.8499999999999999 0.0 0.0
F 3.7895644696 0.0 0.0
2

Na -2.2000000000000006 0.0 0.0
F 4.139564469600001 0.0 0.0
2

Na -2.3000000000000007 0.0 0.0
F 4.2395644696 0.0 0.0
2

Na -2.6999999999999997 0.0 0.0
F 4.6395644696 0.0 0.0
5

O -0.8538867728 -2.2336638387 -1.9861071149
H -1.1873583843 -2.5727418673 -1.1431016617
H 0.1079542592 -2.33546634 -1.9127802875
F 0.801467568 -1.3040146307 0.9877043324
Na 0.1172935825 0.8196609924 0.6615545635
5

O -0.1052174527 2.070568616 1.8245827333
H -0.9509187569 2.5103933551 1.7029808725
H 0.4564961959 2.3742335592 1.0885688013
F 1.0760015918 -0.3069642469 -0.389526622
Na -0.4603636594 -0.165464593 1.1957109514
5

O -1.2773200529 1.8646812658 -1.8241703091
H -0.4417652494 2.2613090402 -1.5374243879
H -0.9963108355 1.0639086796 -2.3077114623
F 1.0760015918 -0.3069642469 -0.389526622
Na -0.4603636594 -0.165464593 1.1957109514
5

O 0.2044574329 -1.9767595394 2.4303834414
H 0.3643094613 -2.14245085 3.3600449482
H 1.0176907101 -2.2499474879 1.9500386611
F 1.0760015918 -0.3069642469 -0.389526622
Na -0.4603636594 -0.165464593 1.1957109514
5

O 1.4759580603 1.6475472452 -1.3787322893
H 1.9152555014 0.8669377993 -1.7493943632
H 1.9993395761 1.8756865874 -0.5948286093
F -0.1183957802 -1.3367277319 -0.9471667048
Na -0.5965070112 0.9099983523 -0.6364629761
5

O 0.0156639932 0.8775483455 1.7038721815
H 0.1463640733 -0.0637627764 1.8993342171
H 0.9008694064 1.2712391092 1.7587886561
F -0.1183957802 -1.3367277319 -0.9471667048
Na -0.5965070112 0.9099983523 -0.6364629761
5

O -4.3926466015 0.2417160477 -0.3929220169
H -4.8269075223 -0.4855046256 0.0559939175
H -3.7457626587 -0.1574348395 -1.0024455845
F -0.1183957802 -1.3367277319 -0.9471667048
Na -0.5965070112 0.9099983523 -0.6364629761
5

O -0.2108893019 0.4282319997 2.9223869447
H -0.2622762999 0.2239043457 3.8576613245
H 0.7510444149 0.3891876015 2.6568252182
F 0.4766453085 1.6882794727 -0.0040056318
Na -0.9552013152 2.0928757672 1.5087126321
5

O 2.1452404282 -1.7975106591 0.1328998628
H 2.2390034612 -2.4315294389 -0.5986539731
H 1.2217829859 -1.898396251 0.4277235855
F 0.4766453085 1.6882794727 -0.0040056318
Na -0.9552013152 2.0928757672 1.5087126321
5

O -3.4131181156 -0.2005287668 0.110174407
H -3.2183880455 -1.0115496346 0.5897599818
H -2.6944477204 -0.1286151966 -0.549756529
F 0.4766453085 1.6882794727 -0.0040056318
Na -0.9552013152 2.0928757672 1.5087126321
5

O -0.1667299586 2.5802788207 -0.7307623824
H -0.9915755433 2.6870427872 -0.2413773264
H -0.2409608638 1.6904105163 -1.1376292137
F -0.3220622091 -0.0123330944 -1.2916941435
Na -0.7183778012 0.0174204451 0.9262671768
5

O 0.2421368536 1.4637074285 3.3111413558
H 0.9587608208 0.8417487677 3.1379484368
H 0.092474362 1.9057579978 2.4595907722
F -1.1372469189 -1.149011033 -0.9353803757
Na -0.8217443732 -0.3383523014 1.0597653419
5

O 1.4999584727 -0.62557324 1.4458580345
H 1.6070875665 -1.4622724081 0.9684214048
H 1.9431599839 0.0325559256 0.8820772058
F -1.1372469189 -1.149011033 -0.9353803757
Na -0.8217443732 -0.3383523014 1.0597653419
5

O -0.707850762 1.7583097786 -1.1986360286
H -1.5310075435 1.3636177618 -0.870033405
H -0.2616043525 2.1017305586 -0.4056935103
F 2.0225315705 0.001339489 -0.0670271133
Na 0.674535223 0.0027816153 -1.7170032874
5

O -0.7055842217 -1.7560145399 -1.2039006452
H -1.5296768036 -1.3640391375 -0.874400665
H -0.2588333858 -2.1012184795 -0.4120433624
F 2.0225315705 0.001339489 -0.0670271133
Na 0.674535223 0.0027816153 -1.7170032874
5

O 0.9088052444 1.941149598 1.1050904294
H 1.5024761713 2.5684237537 1.5206041618
H 1.472382364 1.2174594842 0.6973733239
F 2.0225315705 0.001339489 -0.0670271133
Na 0.674535223 0.0027816153 -1.7170032874
5

O -0.8983139084 -0.0031018216 2.1084334507
H -0.3168202171 0.7646896658 1.9734117685
H -0.3157423486 -0.7697207973 1.9712822062
F 2.0225315705 0.001339489 -0.0670271133
Na 0.674535223 0.0027816153 -1.7170032874
5

O 1.6887530942 1.0844082654 2.3958138407
H 1.5304037132 1.4128376903 1.4932519499
H 0.7908326828 0.8969456164 2.7295729476
F 0.8844448431 1.2980888979 -0.2235508606
Na 1.2275917881 -0.8682401149 0.0191207811
5

O 0.6028352601 -1.5211074826 -2.1227901035
H -0.3094279162 -1.8417636412 -2.0981709696
H 0.5573335807 -0.6747671018 -2.5978874049
F 0.8844448431 1.2980888979 -0.2235508606
Na 1.2275917881 -0.8682401149 0.0191207811
5

O -1.4335902887 2.1209602478 0.5022306125
H -1.4619981441 3.0749069716 0.6005497068
H -0.5021357336 1.8870970925 0.2350322332
F 0.8844448431 1.2980888979 -0.2235508606
Na 1.2275917881 -0.8682401149 0.0191207811
5

O 2.7597936677 -1.2468952517 1.6682744702
H 3.6792732138 -1.4259753471 1.8658888836
H 2.521488292 -0.400877208 2.1186211076
F 0.8844448431 1.2980888979 -0.2235508606
Na 1.2275917881 -0.8682401149 0.0191207811
5

O -2.0816308232 -0.0300347182 -0.4808581911
H -2.294931267 -0.9375295145 -0.782413006
H -1.347289603 -0.1677201393 0.158831222
F -0.1261181623 -0.1597874274 1.2942813089
Na -0.7008192035 1.7365265938 2.0689280611
5

O 3.1303388402 2.1945566195 0.8943173911
H 3.8962745327 1.8390679208 1.3490056602
H 2.7821145664 1.4641679671 0.3308196699
F -0.1261181623 -0.1597874274 1.2942813089
Na -0.7008192035 1.7365265938 2.0689280611
5

O 2.0106635652 -2.3705366548 -1.1989505248
H 1.4419900788 -2.6942958636 -0.4830275392
H 1.4514793589 -2.4092901419 -1.9910941393
F -0.1261181623 -0.1597874274 1.2942813089
Na -0.7008192035 1.7365265938 2.0689280611
5

O 2.3883432537 0.0973131242 -1.4354508851
H 2.5649692491 0.9207211925 -0.9582529159
H 1.4164446301 0.0811894965 -1.5467188275
F -0.3220622091 -0.0123330944 -1.2916941435
Na -0.7183778012 0.0174204451 0.9262671768
5

O 1.7111982644 2.6828491234 0.6406374019
H 1.3673779546 3.4639460683 1.0772752976
H 1.1786138109 1.9185434828 0.9772108895
F 0.2811977002 0.5887495359 1.1114198512
Na -0.1095355703 0.1583614908 -1.0369699784
5

O -1.9225664685 -1.0446725821 -1.6295564941
H -2.8062777431 -0.9597619641 -1.9875407515
H -1.9755594961 -1.6769880322 -0.8711421872
F 0.2811977002 0.5887495359 1.1114198512
Na -0.1095355703 0.1583614908 -1.0369699784
5

O -0.285153387 0.5495639747 1.6743319809
H 0.5219709589 0.9977125118 1.9703136029
H -0.0449871573 -0.3956685138 1.6446384372
F -0.251628295 -1.0205578707 -1.2422488744
Na -0.5705724579 1.0840265395 -0.6477870821
5

O 1.5593788895 1.9368009697 -0.9537415687
H 2.0076609616 1.2159411151 -1.4229565065
H 1.9900991323 1.9764888853 -0.0855089054
F -0.251628295 -1.0205578707 -1.2422488744
Na -0.5705724579 1.0840265395 -0.6477870821
5

O 2.2130813371 -0.6667249937 -1.9094883051
H 2.4859746274 -1.0795230482 -2.7305868109
H 1.2570212301 -0.8934086324 -1.7698939488
F -0.251628295 -1.0205578707 -1.2422488744
Na -0.5705724579 1.0840265395 -0.6477870821
5

O 3.014170187 -1.0438131571 0.8012185857
H 2.2787872167 -1.6210497111 1.058326101
H 2.9435499904 -0.9955720137 -0.1670568225
F -0.251628295 -1.0205578707 -1.2422488744
Na -0.5705724579 1.0840265395 -0.6477870821
5

O 2.23865072 -0.6157881828 -1.8756888298
H 2.1811845103 0.3457694345 -1.8893826785
H 1.3087968286 -0.9086889735 -1.7787093257
F -0.3153113257 -1.1189726079 -1.1986842667
Na -0.6322953009 0.9548821738 -0.6281922582
5

O -0.2764096739 0.4642346059 1.679920662
H 0.5276416493 0.910015328 1.9812057452
H -0.0419679532 -0.4846766086 1.6548966758
F -0.3153113257 -1.1189726079 -1.1986842667
Na -0.6322953009 0.9548821738 -0.6281922582
5

O 3.0321843304 -1.0473471291 0.7433957608
H 2.3222013645 -1.6429138162 1.0277849387
H 2.8998670829 -0.9771277977 -0.2260360981
F -0.3153113257 -1.1189726079 -1.1986842667
Na -0.6322953009 0.9548821738 -0.6281922582
5

O 2.3297090854 0.2928773323 -0.6603605723
H 3.1949055949 0.2541936623 -0.2528043875
H 1.8265465829 -0.4927305016 -0.349883354
F 0.3111262656 -1.1341106038 0.0564607416
Na 0.134906064 1.0531738148 -0.4201945495
5

O -1.3278020683 -1.7991576757 -1.8144341287
H -0.9252989222 -2.4030168903 -2.4409459482
H -0.6778167156 -1.6934984455 -1.0721049959
F 0.3111262656 -1.1341106038 0.0564607416
Na 0.134906064 1.0531738148 -0.4201945495
5

O -0.3307191966 -0.7582169716 2.5220986206
H -1.0847042912 -1.2921951911 2.7778082995
H -0.0796088555 -1.0515257594 1.607852602
F 0.3111262656 -1.1341106038 0.0564607416
Na 0.134906064 1.0531738148 -0.4201945495
5

O -1.3632361573 0.8704259982 -2.1340373534
H -2.2260405099 1.2384042774 -2.3283288986
H -1.4603402238 -0.1092778231 -2.1760971688
F 0.3111262656 -1.1341106038 0.0564607416
Na 0.134906064 1.0531738148 -0.4201945495
5

O -0.5206745622 -1.8965584696 1.6594745583
H -0.2613548908 -2.7605845222 1.9801358872
H -0.4571217132 -1.9175210793 0.6750952001
F -0.0993463822 -1.0992643964 -0.7382120191
Na 0.3542698689 0.1747014163 1.1038421477
5

O 1.3459114638 0.1022513183 1.9025416923
H 1.8890704428 -0.6376108888 1.58590192
H 1.801892143 0.9014382051 1.5918625139
F -0.3220622091 -0.0123330944 -1.2916941435
Na -0.7183778012 0.0174204451 0.9262671768
5

O 2.2523858086 -0.3472284623 -0.0909985725
H 2.967641776 -0.1280552622 -0.6876123399
H 1.5262559671 -0.7514049955 -0.6238563677
F -0.0993463822 -1.0992643964 -0.7382120191
Na 0.3542698689 0.1747014163 1.1038421477
5

O -0.4964710061 0.9615974923 -2.5416581394
H -0.631825509 1.5297863391 -3.3020519235
H -0.5285591334 1.5429570693 -1.7289271312
F -0.5576049672 2.1582834124 -0.2952218758
Na -1.8400200477 0.7529483397 0.6319483479
5

O -1.0674226428 -0.4880729753 2.4020322595
H -1.2761220039 -0.5972670019 3.3313340382
H -0.0730998026 -0.4155919964 2.340795557
F -0.5576049672 2.1582834124 -0.2952218758
Na -1.8400200477 0.7529483397 0.6319483479
5

O -0.9119016537 -2.6466976715 0.2763901308
H -1.0103467278 -2.225512579 1.1390519393
H 0.0401437586 -2.6008582518 0.0845062908
F -0.5576049672 2.1582834124 -0.2952218758
Na -1.8400200477 0.7529483397 0.6319483479
5

O 2.9120406939 1.3225133455 0.5960173643
H 3.5333452459 1.9484587277 0.9704869675
H 2.211185798 1.8382825867 0.1236482174
F 0.6905909643 1.9702745542 -0.41728608
Na 0.7899667883 0.1660835159 0.9727502942
5

O -0.5870376953 -2.5529305327 -0.3862582852
H -1.5006500389 -2.3833296246 -0.1051445001
H -0.3698192906 -1.811107329 -0.9780116667
F 0.6905909643 1.9702745542 -0.41728608
Na 0.7899667883 0.1660835159 0.9727502942
5

O -3.0752518317 -1.3683705704 0.2457498747
H -3.9820666356 -1.6797490708 0.266504797
H -2.9891399462 -0.775286713 -0.5410343508
F 0.6905909643 1.9702745542 -0.41728608
Na 0.7899667883 0.1660835159 0.9727502942
5

O -0.4924037921 -0.7209681529 -1.6227047542
H -0.3447800638 -0.8822517401 -2.5553786576
H -0.0197298893 -1.4494819033 -1.1168152455
F 0.7876237036 -2.1440709335 -0.0072567301
Na 0.5028585681 0.7225544406 0.0058830833
5

O 2.5152233526 -0.2908439706 -0.0028765043
H 3.4567167558 -0.4553517267 -0.0143600412
H 2.0451041113 -1.1689382197 -0.0069996627
F 0.7876237036 -2.1440709335 -0.0072567301
Na 0.5028585681 0.7225544406 0.0058830833
5

O -2.5934162617 0.3007735731 0.0114736425
H -2.1897673184 -0.1462434877 -0.7491448829
H -2.1849447706 -0.1520092113 0.7661206099
F 0.7876237036 -2.1440709335 -0.0072567301
Na 0.5028585681 0.7225544406 0.0058830833
5

O 1.6865880696 -1.1056121442 3.1979746505
H 1.5289860674 -1.4867527013 4.062613113
H 1.1132128655 -1.5846704801 2.5671403898
F -0.9540726837 0.3267381874 0.4612092569
Na -0.3449722362 2.0719822686 1.5564634004
5

O 0.1123389351 -1.9983299295 1.1488573437
H -0.4303151337 -2.737731996 0.8264283267
H -0.3854081718 -1.1787470409 0.9353221316
F -0.9540726837 0.3267381874 0.4612092569
Na -0.3449722362 2.0719822686 1.5564634004
5

O 1.6479043736 -1.8977002669 0.8322404036
H 2.4132881722 -2.2481870572 1.2848456611
H 1.956485945 -1.3066465569 0.0982601114
F 1.5090754495 -0.2887155038 -1.0963771002
Na -0.2438186685 -0.9703338318 -0.0461801537
5

O 0.0797166422 -0.6565498074 -2.1160707493
H -0.1841578086 -0.2770552205 -2.9572514295
H 0.9262873671 -0.2273099556 -1.8736168577
F 0.5800566185 0.0351649622 1.0513643919
Na -1.2362727044 -0.0603265178 -0.1731346743
5

O -0.2660934606 -3.2666412178 -0.8134532813
H -0.0135165598 -2.6307994123 -1.4962345064
H 0.3815992422 -3.1247360076 -0.0949684004
F 0.5800566185 0.0351649622 1.0513643919
Na -1.2362727044 -0.0603265178 -0.1731346743
5

O 1.4604422875 -2.4241921124 1.191782294
H 1.4919979723 -2.7833049838 2.0798847184
H 1.1359509392 -1.4978308167 1.2746362452
F 0.5800566185 0.0351649622 1.0513643919
Na -1.2362727044 -0.0603265178 -0.1731346743
5

O 2.1544297426 0.6334509992 2.1126365816
H 2.2510430365 0.6722634424 3.0654291505
H 1.8403215787 -0.2680022119 1.8940892045
F 0.801467568 -1.3040146307 0.9877043324
Na 0.1172935825 0.8196609924 0.6615545635
8

O -3.4117947362 -0.3756801772 0.1435240361
H -4.362892986 -0.3227227196 0.2365671293
H -3.0872889527 0.4962550802 -0.1354938081
O 0.494106672 0.5704176858 -2.3260325931
H 0.5310531496 0.4730875695 -3.2786482832
H 0.4468775987 -0.3546044671 -1.9279922309
F 0.3222273186 -1.5808088434 -1.049105093
Na -1.1965464748 -0.9908604003 0.3522708872
8

O 0.5446642673 2.2651132569 1.3779828996
H 0.7783773077 3.1033525668 1.7806430053
H 1.2921581719 2.0120282357 0.7757331381
O 0.494106672 0.5704176858 -2.3260325931
H 0.5310531496 0.4730875695 -3.2786482832
H 0.4468775987 -0.3546044671 -1.9279922309
F 0.3222273186 -1.5808088434 -1.049105093
Na -1.1965464748 -0.9908604003 0.3522708872
8

O -0.3094508524 1.4616304929 1.8612503188
H -1.2482316957 1.6247849598 1.6818071381
H -0.2843385285 0.5764464386 2.2570886143
O -1.1508086239 1.3315923566 -1.4562047623
H -1.3135455729 0.4260031892 -1.7618233428
H -1.8896403874 1.5265938092 -0.8587047129
F 0.9116602979 -1.0902829692 -0.1505944657
Na 0.7786593902 1.1464187039 -0.1707666036
8

O -1.1508086239 1.3315923566 -1.4562047623
H -1.3135455729 0.4260031892 -1.7618233428
H -1.8896403874 1.5265938092 -0.8587047129
O -0.1990100011 -1.372743441 2.1595708503
H 0.2276516627 -2.0027900894 2.7428501125
H 0.3103046402 -1.3704329974 1.3079617753
F 0.9116602979 -1.0902829692 -0.1505944657
Na 0.7786593902 1.1464187039 -0.1707666036
8

O 3.0177523709 1.5329371695 -0.4987186858
H 3.6736107604 2.0898174008 -0.0772754181
H 3.3916653663 0.6255581162 -0.5234703448
O -0.1990100011 -1.372743441 2.1595708503
H 0.2276516627 -2.0027900894 2.7428501125
H 0.3103046402 -1.3704329974 1.3079617753
F 0.9116602979 -1.0902829692 -0.1505944657
Na 0.7786593902 1.1464187039 -0.1707666036
8

O -0.19980202 1.4313462934 1.7035686124
H -0.1348418431 0.5294529089 2.0538258411
H -1.1519456704 1.6030393411 1.6378153545
O -1.4108651679 1.4745804385 -1.4976801626
H -1.6140947285 0.587883933 -1.8330377162
H -2.0760247272 1.6356690685 -0.8102858758
F 0.7624989787 -1.0229060051 -0.5630922839
Na 0.6489913967 1.211654367 -0.449049993
8

O -1.4875363981 -1.3679155148 -1.7559779957
H -1.4967419151 -2.0401809963 -2.4392011686
H -0.5713582075 -1.3461217638 -1.3733083408
O -1.4108651679 1.4745804385 -1.4976801626
H -1.6140947285 0.587883933 -1.8330377162
H -2.0760247272 1.6356690685 -0.8102858758
F 0.7624989787 -1.0229060051 -0.5630922839
Na 0.6489913967 1.211654367 -0.449049993
8

O -1.4875363981 -1.3679155148 -1.7559779957
H -1.4967419151 -2.0401809963 -2.4392011686
H -0.5713582075 -1.3461217638 -1.3733083408
O -0.19980202 1.4313462934 1.7035686124
H -0.1348418431 0.5294529089 2.0538258411
H -1.1519456704 1.6030393411 1.6378153545
F 0.7624989787 -1.0229060051 -0.5630922839
Na 0.6489913967 1.211654367 -0.449049993
8

O -1.4875363981 -1.3679155148 -1.7559779957
H -1.4967419151 -2.0401809963 -2.4392011686
H -0.5713582075 -1.3461217638 -1.3733083408
O -2.718411402 -1.2305262764 0.8070590275
H -1.9173159899 -1.444881853 1.3134557379
H -2.4701362883 -1.4134961768 -0.1147491445
F 0.7624989787 -1.0229060051 -0.5630922839
Na 0.6489913967 1.211654367 -0.449049993
8

O -0.4964710061 0.9615974923 -2.5416581394
H -0.631825509 1.5297863391 -3.3020519235
H -0.5285591334 1.5429570693 -1.7289271312
O -2.3220390409 -0.6649115307 -1.0753346881
H -1.7994624507 -0.3042960079 -1.8088756273
H -1.8762109121 -1.4886181281 -0.8007857674
F -0.5576049672 2.1582834124 -0.2952218758
Na -1.8400200477 0.7529483397 0.6319483479
8

O -1.0674226428 -0.4880729753 2.4020322595
H -1.2761220039 -0.5972670019 3.3313340382
H -0.0730998026 -0.4155919964 2.340795557
O 1.8520209186 1.9203515031 0.3829671153
H 2.2864500989 2.7589128354 0.5467678605
H 0.8985437783 2.1206189239 0.1335128007
F -0.5576049672 2.1582834124 -0.2952218758
Na -1.8400200477 0.7529483397 0.6319483479
8

O 0.1506612177 -0.411850035 2.2766873382
H 0.3864168032 0.5252659105 2.2162821047
H 0.971991763 -0.9076158349 2.1082247642
O 2.0571487417 -2.0349588724 1.0630760734
H 3.0132540008 -2.0555508868 1.0000270485
H 1.7248969384 -1.7413429575 0.1865578195
F 0.7855916817 -0.9857026695 -0.9871661129
Na -0.9526535155 -0.8741699763 0.3134433057
8

O -1.515722684 1.406534637 -0.4174844831
H -0.9431618019 1.9336798814 0.1623985142
H -1.0820760339 1.39017927 -1.2910023805
O -0.0101088466 0.7992465087 -2.6830845562
H -0.279202488 0.5147600324 -3.5579886963
H 0.301006774 -0.0044974828 -2.198338204
F 0.7855916817 -0.9857026695 -0.9871661129
Na -0.9526535155 -0.8741699763 0.3134433057
8

O 0.1506612177 -0.411850035 2.2766873382
H 0.3864168032 0.5252659105 2.2162821047
H 0.971991763 -0.9076158349 2.1082247642
O 0.5859699832 2.2719090928 1.2910169135
H 0.9046707786 3.0844681853 1.6886070438
H 1.2594420304 1.9937350453 0.6213857689
F 0.7855916817 -0.9857026695 -0.9871661129
Na -0.9526535155 -0.8741699763 0.3134433057
8

O 0.4031459604 -0.2683433006 -1.738444061
H 1.318672166 -0.5813958165 -1.8422243531
H 0.4979704059 0.6607441904 -1.4266625232
O 2.9120406939 1.3225133455 0.5960173643
H 3.5333452459 1.9484587277 0.9704869675
H 2.211185798 1.8382825867 0.1236482174
F 0.6905909643 1.9702745542 -0.41728608
Na 0.7899667883 0.1660835159 0.9727502942
8

O 0.4031459604 -0.2683433006 -1.738444061
H 1.318672166 -0.5813958165 -1.8422243531
H 0.4979704059 0.6607441904 -1.4266625232
O 3.0422377702 -1.0409745835 -1.0624293526
H 2.7917067568 -1.6393229514 -0.346443398
H 3.3031593671 -0.2266660647 -0.6073822519
F 0.6905909643 1.9702745542 -0.41728608
Na 0.7899667883 0.1660835159 0.9727502942
8

O -1.515722684 1.406534637 -0.4174844831
H -0.9431618019 1.9336798814 0.1623985142
H -1.0820760339 1.39017927 -1.2910023805
O 0.1506612177 -0.411850035 2.2766873382
H 0.3864168032 0.5252659105 2.2162821047
H 0.971991763 -0.9076158349 2.1082247642
F 0.7855916817 -0.9857026695 -0.9871661129
Na -0.9526535155 -0.8741699763 0.3134433057
8

O 2.7597936677 -1.2468952517 1.6682744702
H 3.6792732138 -1.4259753471 1.8658888836
H 2.521488292 -0.400877208 2.1186211076
O 1.6887530942 1.0844082654 2.3958138407
H 1.5304037132 1.4128376903 1.4932519499
H 0.7908326828 0.8969456164 2.7295729476
F 0.8844448431 1.2980888979 -0.2235508606
Na 1.2275917881 -0.8682401149 0.0191207811
8

O -0.6907514499 -1.9047759671 0.9637974904
H -0.6542370368 -2.7601952978 1.3974484514
H -1.344017935 -1.9814341118 0.2370355364
O 2.7597936677 -1.2468952517 1.6682744702
H 3.6792732138 -1.4259753471 1.8658888836
H 2.521488292 -0.400877208 2.1186211076
F 0.8844448431 1.2980888979 -0.2235508606
Na 1.2275917881 -0.8682401149 0.0191207811
8

O 2.7597936677 -1.2468952517 1.6682744702
H 3.6792732138 -1.4259753471 1.8658888836
H 2.521488292 -0.400877208 2.1186211076
O 0.6028352601 -1.5211074826 -2.1227901035
H -0.3094279162 -1.8417636412 -2.0981709696
H 0.5573335807 -0.6747671018 -2.5978874049
F 0.8844448431 1.2980888979 -0.2235508606
Na 1.2275917881 -0.8682401149 0.0191207811
8

O 1.1583675322 1.6809105562 -0.0128748034
H 0.5649481034 1.6637458093 -0.7812339794
H 0.5630807735 1.6698509962 0.7544375217
O -0.7382869461 0.6360754696 -1.8188138192
H -1.0624189347 0.7042022952 -2.7170995
H -1.5063876254 0.3665820352 -1.2310871436
F -2.125860416 -0.3255795167 0.0021807162
Na -0.0246392501 -0.8851578058 0.0021393752
8

O 2.2311200048 -0.7893779028 0.0083848034
H 3.1584080286 -1.024665122 0.0122739447
H 2.1624709302 0.1887515204 0.0009774671
O -0.7396718012 0.6696970603 1.8059758776
H -1.0639232849 0.7494615163 2.7032570592
H -1.5064870181 0.3868320962 1.2226120667
F -2.125860416 -0.3255795167 0.0021807162
Na -0.0246392501 -0.8851578058 0.0021393752
8

O 2.2311200048 -0.7893779028 0.0083848034
H 3.1584080286 -1.024665122 0.0122739447
H 2.1624709302 0.1887515204 0.0009774671
O 1.1583675322 1.6809105562 -0.0128748034
H 0.5649481034 1.6637458093 -0.7812339794
H 0.5630807735 1.6698509962 0.7544375217
F -2.125860416 -0.3255795167 0.0021807162
Na -0.0246392501 -0.8851578058 0.0021393752
8

O 0.8586734321 2.1145842191 -1.1259849071
H 0.8681195005 2.4585349456 -2.0201546368
H 1.2456031674 1.1803354274 -1.1704326249
O -1.2404938567 1.2494804793 0.1729358927
H -1.4219468654 1.8088600448 0.9302878028
H -0.5223166556 1.7078332893 -0.3484102043
F 1.5090754495 -0.2887155038 -1.0963771002
Na -0.2438186685 -0.9703338318 -0.0461801537
8

O 0.8586734321 2.1145842191 -1.1259849071
H 0.8681195005 2.4585349456 -2.0201546368
H 1.2456031674 1.1803354274 -1.1704326249
O 1.6479043736 -1.8977002669 0.8322404036
H 2.4132881722 -2.2481870572 1.2848456611
H 1.956485945 -1.3066465569 0.0982601114
F 1.5090754495 -0.2887155038 -1.0963771002
Na -0.2438186685 -0.9703338318 -0.0461801537
8

O -2.4756781646 -1.0110532858 -0.7048199832
H -3.0065987851 -1.1961228964 -1.4810411595
H -2.4558569197 -0.0473560412 -0.5901095504
O 1.6479043736 -1.8977002669 0.8322404036
H 2.4132881722 -2.2481870572 1.2848456611
H 1.956485945 -1.3066465569 0.0982601114
F 1.5090754495 -0.2887155038 -1.0963771002
Na -0.2438186685 -0.9703338318 -0.0461801537
8

O -2.4756781646 -1.0110532858 -0.7048199832
H -3.0065987851 -1.1961228964 -1.4810411595
H -2.4558569197 -0.0473560412 -0.5901095504
O 0.8586734321 2.1145842191 -1.1259849071
H 0.8681195005 2.4585349456 -2.0201546368
H 1.2456031674 1.1803354274 -1.1704326249
F 1.5090754495 -0.2887155038 -1.0963771002
Na -0.2438186685 -0.9703338318 -0.0461801537
8

O -1.4034049433 -1.6575137726 -0.0623581079
H -0.726646086 -2.1237209374 0.4490447441
H -1.607607743 -0.8783973291 0.4789048457
O -1.9863905329 1.6753620818 -1.592814228
H -2.9111644591 1.7917305744 -1.8121441568
H -1.9184991671 1.6203445389 -0.6149756432
F -1.078402859 0.9795444583 0.7093010116
Na -0.3726413805 -0.0001738739 -1.3615072726
8

O 1.2729475484 2.0348967047 1.006342495
H 1.3680685485 2.9631072037 0.786923573
H 0.3203136708 1.8017455578 0.8817078839
O 1.8811605823 -0.3005170034 -0.3800872216
H 1.7698308357 -1.0034003441 0.2814402518
H 1.9164227119 0.5350255811 0.1201674361
F -1.078402859 0.9795444583 0.7093010116
Na -0.3726413805 -0.0001738739 -1.3615072726
8

O -1.9863905329 1.6753620818 -1.592814228
H -2.9111644591 1.7917305744 -1.8121441568
H -1.9184991671 1.6203445389 -0.6149756432
O 1.2729475484 2.0348967047 1.006342495
H 1.3680685485 2.9631072037 0.786923573
H 0.3203136708 1.8017455578 0.8817078839
F -1.078402859 0.9795444583 0.7093010116
Na -0.3726413805 -0.0001738739 -1.3615072726
8

O -0.0081232325 -0.0096976087 2.917355198
H 0.6765088698 0.646819754 3.0772899628
H -0.5347113241 0.3805839435 2.1828624145
O -1.9863905329 1.6753620818 -1.592814228
H -2.9111644591 1.7917305744 -1.8121441568
H -1.9184991671 1.6203445389 -0.6149756432
F -1.078402859 0.9795444583 0.7093010116
Na -0.3726413805 -0.0001738739 -1.3615072726
8

O 1.5294437966 -1.9078202071 1.1452757551
H 1.7674579318 -2.4866049676 1.8712442802
H 0.9349330529 -1.1901543779 1.5172936101
O 1.4980374938 1.9369309699 1.1374775819
H 1.7272817463 2.521755069 1.8614100875
H 0.9153736234 1.2109172918 1.5121108795
F 0.0267319422 0.0038844536 1.8325590018
Na -1.8627838836 -0.0125611758 0.8727094203
8

O -0.0901037484 2.3269236234 -1.1456647678
H 0.2610528065 1.5952989488 -1.6799955723
H 0.4966918049 2.3731783307 -0.3692679647
O -0.0517252304 -2.3327205542 -1.1364566554
H 0.2868259191 -1.5978328544 -1.6744317311
H 0.5365920123 -2.3659515841 -0.3605224842
F 0.0267319422 0.0038844536 1.8325590018
Na -1.8627838836 -0.0125611758 0.8727094203
8

O -0.0901037484 2.3269236234 -1.1456647678
H 0.2610528065 1.5952989488 -1.6799955723
H 0.4966918049 2.3731783307 -0.3692679647
O 1.5294437966 -1.9078202071 1.1452757551
H 1.7674579318 -2.4866049676 1.8712442802
H 0.9349330529 -1.1901543779 1.5172936101
F 0.0267319422 0.0038844536 1.8325590018
Na -1.8627838836 -0.0125611758 0.8727094203
8

O -2.4145227269 2.2679101203 -0.0617358715
H -2.1507618277 1.9531832921 0.8192201455
H -1.5862195388 2.606358622 -0.4416211538
O -0.2562503876 0.1682817187 -2.3743799678
H -0.1255671124 1.1141236215 -2.2040849445
H -1.2034843657 0.0198047206 -2.2194131192
F 0.9656713128 0.8541706923 0.7035811558
Na 1.1451197328 -0.7697934003 -0.8149269339
8

O -1.1763245194 0.9226928026 2.1059319774
H -1.0044274691 1.1511806194 3.0211816869
H -0.2973255942 0.9142198241 1.6355773079
O -0.2562503876 0.1682817187 -2.3743799678
H -0.1255671124 1.1141236215 -2.2040849445
H -1.2034843657 0.0198047206 -2.2194131192
F 0.9656713128 0.8541706923 0.7035811558
Na 1.1451197328 -0.7697934003 -0.8149269339
8

O -0.7055842217 -1.7560145399 -1.2039006452
H -1.5296768036 -1.3640391375 -0.874400665
H -0.2588333858 -2.1012184795 -0.4120433624
O -0.707850762 1.7583097786 -1.1986360286
H -1.5310075435 1.3636177618 -0.870033405
H -0.2616043525 2.1017305586 -0.4056935103
F 2.0225315705 0.001339489 -0.0670271133
Na 0.674535223 0.0027816153 -1.7170032874
8

O 0.9088052444 1.941149598 1.1050904294
H 1.5024761713 2.5684237537 1.5206041618
H 1.472382364 1.2174594842 0.6973733239
O -0.707850762 1.7583097786 -1.1986360286
H -1.5310075435 1.3636177618 -0.870033405
H -0.2616043525 2.1017305586 -0.4056935103
F 2.0225315705 0.001339489 -0.0670271133
Na 0.674535223 0.0027816153 -1.7170032874
8

O -0.8983139084 -0.0031018216 2.1084334507
H -0.3168202171 0.7646896658 1.9734117685
H -0.3157423486 -0.7697207973 1.9712822062
O 0.9107761715 -1.9425278851 1.1000882749
H 1.505187474 -2.5700642733 1.5141640698
H 1.4736434893 -1.2172203062 0.6942329429
F 2.0225315705 0.001339489 -0.0670271133
Na 0.674535223 0.0027816153 -1.7170032874
8

O -1.6353363357 -2.5421395601 0.5680041708
H -0.6720233465 -2.6117499275 0.5200256896
H -1.7926846982 -1.9078973719 1.2957685769
O 1.1104232931 -1.6167635874 0.1586460147
H 2.0216937395 -1.8999968585 0.2452918405
H 0.9833689027 -0.8399938425 0.7581772618
F 0.2811977002 0.5887495359 1.1114198512
Na -0.1095355703 0.1583614908 -1.0369699784
8

O 1.1104232931 -1.6167635874 0.1586460147
H 2.0216937395 -1.8999968585 0.2452918405
H 0.9833689027 -0.8399938425 0.7581772618
O 1.7111982644 2.6828491234 0.6406374019
H 1.3673779546 3.4639460683 1.0772752976
H 1.1786138109 1.9185434828 0.9772108895
F 0.2811977002 0.5887495359 1.1114198512
Na -0.1095355703 0.1583614908 -1.0369699784
8

O -0.2579155562 -0.032672935 -2.2384630994
H -0.0409117846 0.9009011252 -2.0944332294
H -1.225676643 -0.0709456622 -2.186982092
O 0.4173791119 2.4222093715 -0.9453784051
H 1.0825472892 3.1077228244 -1.0293550283
H 0.7227076848 1.8069140793 -0.2299671281
F 1.0007506324 0.6074036431 0.8030553307
Na 0.9531790486 -1.1334413433 -0.6022343552
8

O 1.7111982644 2.6828491234 0.6406374019
H 1.3673779546 3.4639460683 1.0772752976
H 1.1786138109 1.9185434828 0.9772108895
O 1.0404285318 1.9435593344 -1.8549915127
H 1.6413058082 2.1798629017 -2.561990838
H 1.3788937716 2.371048737 -1.0347993193
F 0.2811977002 0.5887495359 1.1114198512
Na -0.1095355703 0.1583614908 -1.0369699784
8

O -1.6353363357 -2.5421395601 0.5680041708
H -0.6720233465 -2.6117499275 0.5200256896
H -1.7926846982 -1.9078973719 1.2957685769
O 1.7111982644 2.6828491234 0.6406374019
H 1.3673779546 3.4639460683 1.0772752976
H 1.1786138109 1.9185434828 0.9772108895
F 0.2811977002 0.5887495359 1.1114198512
Na -0.1095355703 0.1583614908 -1.0369699784
8

O 3.0283177134 -0.7469963653 -0.7975467523
H 3.8468233226 -0.4169594121 -1.1727330206
H 2.3670927713 0.0156326263 -0.8073742661
O 2.1604409634 -1.0451558334 1.787953179
H 2.7579626109 -1.2124634655 2.5189995077
H 2.7040046028 -1.0028056299 0.9761719863
F 1.214571619 0.9528833864 -0.6010336906
Na 0.3559521211 0.4867747231 1.384952105
8

O 3.0283177134 -0.7469963653 -0.7975467523
H 3.8468233226 -0.4169594121 -1.1727330206
H 2.3670927713 0.0156326263 -0.8073742661
O -2.5006812537 1.2635021801 -1.6838873643
H -1.8846531002 2.0098696992 -1.6276693828
H -1.9384154543 0.5285400117 -1.993693036
F 1.214571619 0.9528833864 -0.6010336906
Na 0.3559521211 0.4867747231 1.384952105
8

O 2.1604409634 -1.0451558334 1.787953179
H 2.7579626109 -1.2124634655 2.5189995077
H 2.7040046028 -1.0028056299 0.9761719863
O -0.3949192269 -0.4085789384 -2.3223050777
H -0.0865098645 -1.3218257906 -2.3211563585
H 0.2244160261 0.0668857685 -1.7378031635
F 1.214571619 0.9528833864 -0.6010336906
Na 0.3559521211 0.4867747231 1.384952105
8

O -1.2414541563 -0.7030227714 1.7946288824
H -0.3499294078 -0.9016027669 2.1031437714
H -1.2561224532 0.2646048278 1.6496566613
O -0.8733862113 1.8737453286 0.9136284518
H -1.4308516884 2.6530848968 0.9318066631
H -0.8284879209 1.5510456462 -0.0430906964
F -0.5787719607 0.8007923193 -1.3222079017
Na -0.3219962053 -1.1619931929 -0.5711400252
8

O 1.5027550319 -1.1969463128 0.8737229918
H 2.294900211 -1.7180687318 1.013202106
H 1.7840036534 -0.242056774 0.9059136582
O -1.2414541563 -0.7030227714 1.7946288824
H -0.3499294078 -0.9016027669 2.1031437714
H -1.2561224532 0.2646048278 1.6496566613
F -0.5787719607 0.8007923193 -1.3222079017
Na -0.3219962053 -1.1619931929 -0.5711400252
8

O 1.9864291542 1.4104170304 0.855926518
H 1.1175354977 1.7882238718 1.0625950622
H 2.0975296994 1.5853579757 -0.1007220825
O -1.9569211987 -2.6747911244 0.0433803584
H -2.8123777115 -3.0515005287 -0.1654599137
H -2.0674203975 -2.1164792071 0.8319167413
F -0.5787719607 0.8007923193 -1.3222079017
Na -0.3219962053 -1.1619931929 -0.5711400252
8

O 1.5027550319 -1.1969463128 0.8737229918
H 2.294900211 -1.7180687318 1.013202106
H 1.7840036534 -0.242056774 0.9059136582
O -0.8733862113 1.8737453286 0.9136284518
H -1.4308516884 2.6530848968 0.9318066631
H -0.8284879209 1.5510456462 -0.0430906964
F -0.5787719607 0.8007923193 -1.3222079017
Na -0.3219962053 -1.1619931929 -0.5711400252
8

O 0.2258179567 -1.8631190854 -0.8739221384
H -0.0343615698 -2.7769459979 -1.0012173152
H -0.1038218057 -1.5821423762 0.0388580529
O 2.5658637419 -0.6578575354 -0.2192802709
H 3.141616733 -0.4185035302 -0.9471380838
H 1.8847091006 -1.2574941458 -0.5915631351
F -0.398638261 -0.8346062191 1.3171591874
Na 1.1094274166 0.6081049667 1.0363723149
8

O -1.1753446052 0.6045985052 -1.6571658939
H -0.7268138611 -0.2530701926 -1.7013015193
H -1.8994161352 0.4460219758 -1.0184563426
O 2.5658637419 -0.6578575354 -0.2192802709
H 3.141616733 -0.4185035302 -0.9471380838
H 1.8847091006 -1.2574941458 -0.5915631351
F -0.398638261 -0.8346062191 1.3171591874
Na 1.1094274166 0.6081049667 1.0363723149
8

O -1.1753446052 0.6045985052 -1.6571658939
H -0.7268138611 -0.2530701926 -1.7013015193
H -1.8994161352 0.4460219758 -1.0184563426
O 0.2258179567 -1.8631190854 -0.8739221384
H -0.0343615698 -2.7769459979 -1.0012173152
H -0.1038218057 -1.5821423762 0.0388580529
F -0.398638261 -0.8346062191 1.3171591874
Na 1.1094274166 0.6081049667 1.0363723149
8

O -1.6287809366 0.4802646697 -1.4334361006
H -1.9533750729 1.0893697564 -2.0982968504
H -0.6427225083 0.4591511953 -1.5067299249
O 2.155167588 2.4784202497 -0.4021855511
H 3.0855068012 2.3187335866 -0.2356830853
H 1.7661457324 1.6083322067 -0.6729959928
F 0.8351043473 0.3061845425 -0.8284065473
Na -0.6281443881 0.6457651878 0.8112134658
8

O -3.0305810062 0.2010717162 -1.5241007857
H -3.8378661182 0.3283833169 -2.02599072
H -2.8545231752 1.0462076617 -1.0390034842
O 3.2423466707 -1.2955062695 -0.7943216829
H 3.8708124843 -1.342174775 -1.5159168329
H 3.5808562598 -0.6241950494 -0.1646725202
F 1.0007506324 0.6074036431 0.8030553307
Na 0.9531790486 -1.1334413433 -0.6022343552
8

O 0.2629550037 2.6199416864 1.4977352736
H 0.0614933869 3.4770264777 1.87330711
H 1.0311839434 2.7405960058 0.8932543117
O 2.155167588 2.4784202497 -0.4021855511
H 3.0855068012 2.3187335866 -0.2356830853
H 1.7661457324 1.6083322067 -0.6729959928
F 0.8351043473 0.3061845425 -0.8284065473
Na -0.6281443881 0.6457651878 0.8112134658
8

O -3.0305810062 0.2010717162 -1.5241007857
H -3.8378661182 0.3283833169 -2.02599072
H -2.8545231752 1.0462076617 -1.0390034842
O -1.2544297237 0.7199612357 2.0380367975
H -1.1582525265 0.8846949648 2.9775550843
H -0.3383165488 0.6701194749 1.6551306407
F 1.0007506324 0.6074036431 0.8030553307
Na 0.9531790486 -1.1334413433 -0.6022343552
8

O 0.7117991226 -0.8512268521 -3.3344771391
H 0.7815195141 -0.5857493508 -4.25384079
H 1.3482623091 -0.2830893981 -2.820629023
O 2.2563138015 0.4679872137 -1.6482125218
H 2.3661401343 -0.2686117274 -1.0206573587
H 1.7019448291 1.1042759068 -1.1579943329
F 0.4766453085 1.6882794727 -0.0040056318
Na -0.9552013152 2.0928757672 1.5087126321
8

O 1.938063951 -3.2004939617 -2.3130795738
H 1.4083896664 -3.9962098885 -2.3923885357
H 1.4523499913 -2.5032619238 -2.7880127961
O 0.7117991226 -0.8512268521 -3.3344771391
H 0.7815195141 -0.5857493508 -4.25384079
H 1.3482623091 -0.2830893981 -2.820629023
F 0.4766453085 1.6882794727 -0.0040056318
Na -0.9552013152 2.0928757672 1.5087126321
