2

Na -1.3000000000000007 0.0 0.0
I 4.0130080772 0.0 0.0
2

Na -0.6000000000000001 0.0 0.0
I 3.3130080771999997 0.0 0.0
2

Na -0.7 0.0 0.0
I 3.4130080771999998 0.0 0.0
2

Na -0.30000000000000004 0.0 0.0
I 3.0130080772 0.0 0.0
2

Na -2.200000000000001 0.0 0.0
I 4.913008077200001 0.0 0.0
2

Na -2.0500000000000007 0.0 0.0
I 4.7630080772 0.0 0.0
2

Na -0.4999999999999997 0.0 0.0
I 3.213008077199999 0.0 0.0
2

Na -1.05 0.0 0.0
I 3.7630080771999994 0.0 0.0
2

Na 0.20000000000000026 0.0 0.0
I 2.5130080771999994 0.0 0.0
2

Na -1.7999999999999998 0.0 0.0
I 4.513008077199999 0.0 0.0
2

Na -2.0 0.0 0.0
I 4.7130080772 0.0 0.0
2

Na -1.4500000000000004 0.0 0.0
I 4.1630080772 0.0 0.0
2

Na -1.4000000000000006 0.0 0.0
I 4.1130080772 0.0 0.0
2

Na -2.0 0.0 0.0
I 4.7130080772 0.0 0.0
2

Na -1.75 0.0 0.0
I 4.4630080772 0.0 0.0
2

Na -1.4500000000000004 0.0 0.0
I 4.1630080772 0.0 0.0
2

Na -1.4999999999999998 0.0 0.0
I 4.2130080772 0.0 0.0
2

Na -0.7 0.0 0.0
I 3.4130080771999998 0.0 0.0
2

Na 0.04999999999999991 0.0 0.0
I 2.6630080771999998 0.0 0.0
2

Na -2.3499999999999996 0.0 0.0
I 5.063008077199999 0.0 0.0
2

Na -1.9500000000000002 0.0 0.0
I 4.6630080772 0.0 0.0
2

Na -2.4000000000000004 0.0 0.0
I 5.1130080772 0.0 0.0
2

Na -1.2000000000000002 0.0 0.0
I 3.9130080771999998 0.0 0.0
2

Na 0.10000000000000013 0.0 0.0
I 2.6130080771999995 0.0 0.0
2

Na -2.4499999999999997 0.0 0.0
I 5.1630080772 0.0 0.0
2

Na -1.9500000000000002 0.0 0.0
I 4.6630080772 0.0 0.0
2

Na -0.04999999999999991 0.0 0.0
I 2.7630080771999994 0.0 0.0
2

Na -0.25000000000000017 0.0 0.0
I 2.9630080771999996 0.0 0.0
2

Na 0.0 0.0 0.0
I 2.7130080771999996 0.0 0.0
2

Na -2.200000000000001 0.0 0.0
I 4.913008077200001 0.0 0.0
2

Na -0.5499999999999996 0.0 0.0
I 3.2630080771999994 0.0 0.0
2

Na -0.20000000000000026 0.0 0.0
I 2.9130080771999998 0.0 0.0
2

Na -2.5 0.0 0.0
I 5.2130080772 0.0 0.0
2

Na 0.24999999999999986 0.0 0.0
I 2.4630080771999996 0.0 0.0
2

Na -2.2500000000000004 0.0 0.0
I 4.9630080772 0.0 0.0
2

Na -2.55 0.0 0.0
I 5.263008077199999 0.0 0.0
2

Na 0.24999999999999986 0.0 0.0
I 2.4630080771999996 0.0 0.0
2

Na -0.65 0.0 0.0
I 3.3630080771999995 0.0 0.0
2

Na -1.4500000000000004 0.0 0.0
I 4.1630080772 0.0 0.0
2

Na -0.8500000000000003 0.0 0.0
I 3.5630080771999997 0.0 0.0
2

Na -1.1500000000000004 0.0 0.0
I 3.8630080772 0.0 0.0
2

Na -0.5499999999999996 0.0 0.0
I 3.2630080771999994 0.0 0.0
2

Na -1.4999999999999998 0.0 0.0
I 4.2130080772 0.0 0.0
2

Na -1.9000000000000004 0.0 0.0
I 4.6130080772 0.0 0.0
2

Na -1.4000000000000006 0.0 0.0
I 4.1130080772 0.0 0.0
2

Na -0.3999999999999999 0.0 0.0
I 3.1130080771999995 0.0 0.0
2

Na -0.65 0.0 0.0
I 3.3630080771999995 0.0 0.0
2

Na -0.5499999999999996 0.0 0.0
I 3.2630080771999994 0.0 0.0
2

Na -1.0999999999999999 0.0 0.0
I 3.8130080771999992 0.0 0.0
2

Na 0.10000000000000013 0.0 0.0
I 2.6130080771999995 0.0 0.0
5

O -0.1604822241 -0.1305725456 -2.7749887183
H -0.6638982496 -0.5603990911 -3.4705985828
H -0.6023721502 -0.372514574 -1.9329863547
I -1.2311542369 -0.429551461 0.4937110112
Na 1.0478633454 1.5099846687 -0.0117403174
5

O -0.0760485903 1.3288568108 2.4823107725
H 0.1902267606 1.684381908 3.3338690291
H 0.7419490754 1.2058416742 1.9571256276
I 2.2639236731 0.4984413736 0.1010534374
Na -0.3510996717 -0.6945073413 -0.8937200337
5

O -2.8763542673 0.3843925156 -2.0762048635
H -3.5302123648 0.6523000817 -2.725026999
H -2.126694645 1.0287710341 -2.1330111084
I 1.5193032213 -0.0242022821 -0.0621159693
Na -0.9177010046 -1.6085832354 0.46789469
5

O 1.7987061026 0.7114659503 -3.1983702193
H 2.2785658871 0.6085365289 -4.0223041951
H 1.624882689 -0.1958049848 -2.8450716706
I -0.374630597 -0.9679849638 1.2423817019
Na 0.0665829384 1.7677757629 -0.0638649108
5

O -1.3924281367 2.2581596153 -1.194691303
H -2.1124885007 2.6226439379 -1.7151066295
H -1.7329777084 1.4253187336 -0.8118311474
I -1.7891889725 -0.8937575094 0.2146010494
Na 1.1113888164 -0.2725536144 0.3802075476
5

O -0.6452031631 2.4066553765 2.899202595
H -0.3537401614 2.976592073 3.613486602
H -1.470598038 1.9993334283 3.191561049
I 2.0122517558 0.3711148724 -1.0738202193
Na 0.2489334106 1.1538845939 1.0631979972
5

O -0.9612356244 -1.1904320385 2.342965949
H -0.698717665 -1.6994986734 3.1139038191
H -0.137771797 -0.9878847522 1.8580951921
I 1.5904513841 -0.4354587958 0.0295645364
Na -0.366522059 1.9032679197 -0.1125985207
5

O -0.1536950552 -3.7989782065 -0.8742242731
H -0.2783248535 -3.973703408 -1.8099258724
H -0.8315643619 -3.1385136855 -0.6386165703
I -1.7891889725 -0.8937575094 0.2146010494
Na 1.1113888164 -0.2725536144 0.3802075476
5

O -2.6257397023 -2.2831673278 -0.3036865641
H -2.6675339297 -3.2144210411 -0.5246053065
H -2.5278558773 -1.7903123071 -1.1459878018
I 1.220921085 -0.1078584181 -0.6306028475
Na -1.2992961132 -0.8563122962 0.8901369743
5

O 0.4022277911 -2.0829088185 2.1811158541
H 0.7681029776 -1.9982804683 3.064655035
H 1.0757630574 -1.6957814325 1.5874512051
I 2.3382839318 -0.1367293382 -0.0147352791
Na -0.2897057421 1.1947363695 0.3115607499
5

O -0.064179568 -0.7648730263 2.4285395262
H 0.6021611543 -1.0211000415 3.0698021418
H -0.2735036751 -1.5829334407 1.9003671739
I 2.0122517558 0.3711148724 -1.0738202193
Na 0.2489334106 1.1538845939 1.0631979972
5

O -2.1388201453 0.502004428 -1.9909373236
H -2.4800475649 -0.1760351678 -1.3893182338
H -1.9214591404 0.0211485097 -2.8049189019
I 0.3238243503 -0.2058339825 1.4576601987
Na -0.1898920002 1.4132475953 -1.1176199937
5

O 1.1951880834 -0.534205289 2.0278940565
H 0.3372691219 -0.9790321574 2.0159391347
H 0.9698765237 0.3814710418 1.7966336295
I -1.9450144017 -0.7228467456 0.1212901156
Na 0.4749293069 -1.3099298552 -1.4027642159
5

O -2.1807775764 -2.0047520201 -1.362755074
H -2.3022644659 -2.9554322547 -1.3153450011
H -1.9383909523 -1.7009106498 -0.4622865147
I 2.3382839318 -0.1367293382 -0.0147352791
Na -0.2897057421 1.1947363695 0.3115607499
5

O -2.1807775764 -2.0047520201 -1.362755074
H -2.3022644659 -2.9554322547 -1.3153450011
H -1.9383909523 -1.7009106498 -0.4622865147
I 2.3382839318 -0.1367293382 -0.0147352791
Na -0.2897057421 1.1947363695 0.3115607499
5

O -3.755121612 0.744814293 -0.4471536242
H -4.7114846082 0.6732739371 -0.4418632885
H -3.3940193027 -0.1599317506 -0.2590692352
I 1.6439875058 -1.0501901586 -0.1431825106
Na 0.184121103 1.4436265645 0.6596331736
5

O 0.4589097488 2.107925083 2.0371317939
H 1.096481108 2.7663557881 2.323542735
H 0.8005350115 1.7452437725 1.1977624434
I 0.744613907 0.7074606141 -1.1700065183
Na 0.2215333094 -2.0205101387 0.1560332758
5

O -1.0588936362 -0.3842663335 3.1044387662
H -1.063107143 -0.8012633991 3.9666846712
H -0.326225645 0.2717500875 3.1077562373
I 1.220921085 -0.1078584181 -0.6306028475
Na -1.2992961132 -0.8563122962 0.8901369743
5

O -0.0509079082 -0.588560645 -2.6270024593
H -0.676700084 -1.2648586759 -2.3218586297
H 0.7243414635 -0.6599549056 -2.0424923192
I 2.3382839318 -0.1367293382 -0.0147352791
Na -0.2897057421 1.1947363695 0.3115607499
5

O -2.1388201453 0.502004428 -1.9909373236
H -2.4800475649 -0.1760351678 -1.3893182338
H -1.9214591404 0.0211485097 -2.8049189019
I 0.3238243503 -0.2058339825 1.4576601987
Na -0.1898920002 1.4132475953 -1.1176199937
5

O 2.3098944677 1.9986865365 -0.0040486983
H 1.7329327189 1.9239387435 -0.7800740803
H 1.7329604227 1.9253235571 0.7722175035
I -1.7449447259 0.3368705713 -0.0001357059
Na 0.4529322707 -1.6416122665 0.0044680065
5

O -0.591434128 -0.2194011936 3.3423415082
H -1.4917873297 -0.2115652922 2.980861892
H -0.184747424 0.604948112 3.0307889422
I 0.744613907 0.7074606141 -1.1700065183
Na 0.2215333094 -2.0205101387 0.1560332758
5

O 3.5435203356 1.5245151827 1.4731489564
H 3.4666187763 0.781422403 2.0800986846
H 2.6719027184 1.9550315302 1.5038906387
I -1.9450144017 -0.7228467456 0.1212901156
Na 0.4749293069 -1.3099298552 -1.4027642159
5

O 3.2513267036 0.7826651307 0.2599711268
H 4.133456873 1.1467864704 0.3585201726
H 2.6966909188 1.4846316721 -0.161938015
I -1.3260201807 0.5959335427 0.1455284466
Na 0.4969828549 -1.7611056245 0.3623654715
5

O -2.4239660623 -1.6854983384 -0.113489917
H -3.1280248538 -2.0717498868 0.4132409529
H -1.7872199541 -1.3075843086 0.5224361596
I 0.3238243503 -0.2058339825 1.4576601987
Na -0.1898920002 1.4132475953 -1.1176199937
5

O 0.4022277911 -2.0829088185 2.1811158541
H 0.7681029776 -1.9982804683 3.064655035
H 1.0757630574 -1.6957814325 1.5874512051
I 2.3382839318 -0.1367293382 -0.0147352791
Na -0.2897057421 1.1947363695 0.3115607499
5

O -0.4660793243 0.9270884464 2.8437476816
H -1.3149872049 1.3803597457 2.8198540116
H -0.6656673556 -0.0214455118 2.8798225757
I 1.6439875058 -1.0501901586 -0.1431825106
Na 0.184121103 1.4436265645 0.6596331736
5

O -1.7494229979 2.4463375027 1.5879232788
H -1.8793500468 3.35309681 1.8684495884
H -2.6267607112 2.0211041885 1.5865485892
I 2.3382839318 -0.1367293382 -0.0147352791
Na -0.2897057421 1.1947363695 0.3115607499
5

O -0.5945698595 2.2959821221 -0.8943878956
H -1.2037916256 2.9613513584 -1.2248895577
H -1.1406826355 1.5059296948 -0.6857883588
I -1.9450144017 -0.7228467456 0.1212901156
Na 0.4749293069 -1.3099298552 -1.4027642159
5

O -0.4052894428 -2.9718510508 -1.1588989324
H 0.1755834223 -3.3394575987 -0.4831417883
H -1.3156092554 -3.1598246466 -0.8625440068
I 2.2639236731 0.4984413736 0.1010534374
Na -0.3510996717 -0.6945073413 -0.8937200337
5

O -0.8044666549 1.5010898471 -2.1882572139
H -0.0642918068 1.3928739689 -2.8016950872
H -1.3003040434 0.6690027582 -2.2500130241
I -0.374630597 -0.9679849638 1.2423817019
Na 0.0665829384 1.7677757629 -0.0638649108
5

O 2.3838587215 -1.7358140551 -0.2267201657
H 3.086501361 -1.1408890622 -0.5254271589
H 2.1087838188 -1.3870362137 0.6424263299
I -1.9450144017 -0.7228467456 0.1212901156
Na 0.4749293069 -1.3099298552 -1.4027642159
5

O -0.4660793243 0.9270884464 2.8437476816
H -1.3149872049 1.3803597457 2.8198540116
H -0.6656673556 -0.0214455118 2.8798225757
I 1.6439875058 -1.0501901586 -0.1431825106
Na 0.184121103 1.4436265645 0.6596331736
5

O 1.299167767 1.20290411 -1.5008341813
H 0.3898511104 1.4548894385 -1.7208081063
H 1.7614691849 2.0470880727 -1.3615947668
I -1.7891889725 -0.8937575094 0.2146010494
Na 1.1113888164 -0.2725536144 0.3802075476
5

O -2.407184604 0.8679109658 -0.6131951109
H -2.524299887 0.9083289313 -1.5707744141
H -2.4650864136 -0.0931830979 -0.4087756367
I 1.5904513841 -0.4354587958 0.0295645364
Na -0.366522059 1.9032679197 -0.1125985207
5

O 0.3367236567 3.2086106663 2.4361837251
H 1.2081539677 3.4328255733 2.771714682
H 0.3095466182 2.2370281649 2.4307314157
I 0.3238243503 -0.2058339825 1.4576601987
Na -0.1898920002 1.4132475953 -1.1176199937
5

O -0.8039350174 -1.8231797412 2.1832306773
H -0.7061671218 -2.6306637423 2.694727253
H 0.0040408965 -1.7552328258 1.6331994715
I 1.6439875058 -1.0501901586 -0.1431825106
Na 0.184121103 1.4436265645 0.6596331736
5

O -0.9019428459 -1.1274821371 -3.9734917229
H -1.0943955279 -1.5064705274 -4.8328924471
H -0.8084723142 -1.8764653394 -3.3347973343
I 0.3238243503 -0.2058339825 1.4576601987
Na -0.1898920002 1.4132475953 -1.1176199937
5

O -1.1038200487 1.6657332836 -2.1219554119
H -1.5444110326 1.7135536644 -2.9739633409
H -1.5430633976 0.9431295993 -1.625785493
I -1.9898124729 -0.922066543 0.0053272276
Na 0.9320239831 -1.5117140163 -0.3076533455
5

O 2.414961503 1.1317433339 1.8215436319
H 3.3150555224 1.3773982653 2.041528785
H 2.3871090358 0.1584926438 1.831631869
I -1.2311542369 -0.429551461 0.4937110112
Na 1.0478633454 1.5099846687 -0.0117403174
5

O 0.3367236567 3.2086106663 2.4361837251
H 1.2081539677 3.4328255733 2.771714682
H 0.3095466182 2.2370281649 2.4307314157
I 0.3238243503 -0.2058339825 1.4576601987
Na -0.1898920002 1.4132475953 -1.1176199937
5

O 1.099382401 -1.6403050662 -2.1125753818
H 1.1552862981 -1.6285252326 -1.1461209294
H 0.1464801724 -1.7156190996 -2.2748901172
I -0.374630597 -0.9679849638 1.2423817019
Na 0.0665829384 1.7677757629 -0.0638649108
5

O -1.7494229979 2.4463375027 1.5879232788
H -1.8793500468 3.35309681 1.8684495884
H -2.6267607112 2.0211041885 1.5865485892
I 2.3382839318 -0.1367293382 -0.0147352791
Na -0.2897057421 1.1947363695 0.3115607499
5

O 3.8190903706 0.9074146666 -0.3521234816
H 4.7080668902 1.2664161103 -0.3696445995
H 3.2249121872 1.6073139037 0.0198131882
I -1.7107456635 0.0324907671 0.2876494804
Na 0.6957787968 -1.3982157251 -0.7520326963
5

O 1.299167767 1.20290411 -1.5008341813
H 0.3898511104 1.4548894385 -1.7208081063
H 1.7614691849 2.0470880727 -1.3615947668
I -1.7891889725 -0.8937575094 0.2146010494
Na 1.1113888164 -0.2725536144 0.3802075476
5

O 0.4589097488 2.107925083 2.0371317939
H 1.096481108 2.7663557881 2.323542735
H 0.8005350115 1.7452437725 1.1977624434
I 0.744613907 0.7074606141 -1.1700065183
Na 0.2215333094 -2.0205101387 0.1560332758
5

O -0.0509079082 -0.588560645 -2.6270024593
H -0.676700084 -1.2648586759 -2.3218586297
H 0.7243414635 -0.6599549056 -2.0424923192
I 2.3382839318 -0.1367293382 -0.0147352791
Na -0.2897057421 1.1947363695 0.3115607499
5

O 2.0094559267 -1.2830985532 -1.2993358455
H 1.5790997285 -0.7623829439 -1.9956104956
H 2.6449363581 -0.6736412211 -0.8918025852
I -1.3260201807 0.5959335427 0.1455284466
Na 0.4969828549 -1.7611056245 0.3623654715
5

O 0.5023482271 2.7067416723 -1.1930933668
H -0.3824287623 2.6353456861 -1.5664021446
H 0.4216538827 2.2771064659 -0.3235540782
I -0.219263072 0.2723097459 1.3185615278
Na 0.6678290692 -0.4885505615 -1.5725622117
5

O 0.4022277911 -2.0829088185 2.1811158541
H 0.7681029776 -1.9982804683 3.064655035
H 1.0757630574 -1.6957814325 1.5874512051
I 2.3382839318 -0.1367293382 -0.0147352791
Na -0.2897057421 1.1947363695 0.3115607499
8

O 0.3890311609 2.1084413254 -2.3129522668
H 1.1573168956 1.536632417 -2.1929965203
H -0.230356919 1.5793440367 -2.8419153236
O -2.407184604 0.8679109658 -0.6131951109
H -2.524299887 0.9083289313 -1.5707744141
H -2.4650864136 -0.0931830979 -0.4087756367
I 1.5904513841 -0.4354587958 0.0295645364
Na -0.366522059 1.9032679197 -0.1125985207
8

O 2.3838587215 -1.7358140551 -0.2267201657
H 3.086501361 -1.1408890622 -0.5254271589
H 2.1087838188 -1.3870362137 0.6424263299
O 3.8735794721 0.6082186125 -1.0564164902
H 4.7368095527 0.8155714653 -1.4197960584
H 3.841057507 1.0015231006 -0.1549407705
I -1.9450144017 -0.7228467456 0.1212901156
Na 0.4749293069 -1.3099298552 -1.4027642159
8

O 1.8527599793 2.1491620031 1.4020763607
H 2.1591619994 2.9788858913 1.0283981519
H 1.7827045309 1.5382194532 0.6432597425
O -1.9611827283 1.4064660872 0.0735503618
H -1.5545341076 1.736500546 0.8902908579
H -1.2149435703 1.0720157899 -0.4527804604
I 1.0832144875 -0.0885336226 -1.1889765583
Na -0.2635374792 -1.8245161872 0.7135162385
8

O -0.1206484519 -0.8705033644 -3.2069958337
H 0.1624712942 -1.7454765081 -3.4838945326
H -0.4639265301 -0.9939746682 -2.3037067831
O 1.688950594 1.0766834908 -2.5818763402
H 1.9267200943 1.6225613806 -3.332385296
H 1.0998072242 0.369983635 -2.9248726335
I -0.5197360758 -0.9851619099 0.312049547
Na 1.3463362096 1.3112768286 -0.35105014
8

O -2.4666395832 -1.7971292252 -0.0189920715
H -1.8618700935 -2.1379824938 -0.6932944064
H -1.9835184013 -1.8496802154 0.8196016157
O -0.8466974161 3.0855348547 1.7571160296
H -0.4625378482 3.6255581381 2.4480736469
H -1.5155483628 2.5014666673 2.1747649991
I 1.5904513841 -0.4354587958 0.0295645364
Na -0.366522059 1.9032679197 -0.1125985207
8

O 0.3332861227 2.510122768 -1.9638105924
H 0.5991589507 3.1693688189 -2.6062379874
H 0.0563908308 1.725217608 -2.4688394228
O 2.414961503 1.1317433339 1.8215436319
H 3.3150555224 1.3773982653 2.041528785
H 2.3871090358 0.1584926438 1.831631869
I -1.2311542369 -0.429551461 0.4937110112
Na 1.0478633454 1.5099846687 -0.0117403174
8

O 1.9719304749 -2.5417895911 0.2186275315
H 2.2423203421 -3.0859255526 0.9617713926
H 1.2611810231 -3.0527203295 -0.2350977312
O -0.1536950552 -3.7989782065 -0.8742242731
H -0.2783248535 -3.973703408 -1.8099258724
H -0.8315643619 -3.1385136855 -0.6386165703
I -1.7891889725 -0.8937575094 0.2146010494
Na 1.1113888164 -0.2725536144 0.3802075476
8

O 2.3132752467 2.1173126072 0.6043565249
H 1.7955301108 2.4719101092 -0.1315934894
H 1.6737688102 1.9738254685 1.3167456249
O 2.568220433 -2.7781452698 -1.1040597619
H 2.9304887455 -3.4863962903 -1.6370257274
H 2.988528786 -1.9494510901 -1.3810986273
I -1.4631690114 0.1540089534 -0.2472447389
Na 0.9665626208 -1.5195659215 -0.0210484448
8

O 1.4083106989 0.6943258717 -1.1650130179
H 0.6820214772 1.0183807904 -1.7209926237
H 1.3201193941 1.1975103941 -0.3218636322
O -0.3482472529 0.3572793763 2.8241751323
H -0.8097567117 0.4772420725 3.6573307593
H -1.0019069266 -0.0032220575 2.1939197765
I -1.9898124729 -0.922066543 0.0053272276
Na 0.9320239831 -1.5117140163 -0.3076533455
8

O 0.4304430988 1.2015099708 2.5780221766
H 0.8855563312 1.3220349383 3.4150818071
H 0.9825746399 0.5764744362 2.0607638323
O 2.3050180988 2.4942485897 -0.9460911122
H 3.1931306686 2.8549865079 -0.9029844959
H 2.3888232003 1.5630752967 -0.6724542055
I 2.2427678168 -0.8143711709 0.4057634692
Na -0.3414516056 -1.3716189615 -0.9589773873
8

O -0.3671448842 -2.1455236946 -1.6725799288
H -0.0722902426 -2.7020623962 -2.3976657965
H 0.3206009397 -1.4518598444 -1.5805067092
O -2.8382411198 -0.83312051 -1.191563148
H -2.5208360957 0.0437191836 -0.9263157517
H -2.0535786216 -1.2947916783 -1.5321128624
I 2.0122517558 0.3711148724 -1.0738202193
Na 0.2489334106 1.1538845939 1.0631979972
8

O 0.1971843716 1.9704500605 2.0540454207
H 0.7171503307 1.244874375 2.4310525665
H -0.6281514484 1.5631363536 1.747438466
O 1.3742162189 0.9610055373 -1.4616322235
H 0.6218672962 1.022351978 -2.0748716361
H 1.491624031 1.8383374757 -1.0546796988
I -2.101230619 -0.2474185567 0.3130304385
Na 0.8765489928 -0.6128181562 0.2472685035
8

O -1.5975373342 2.0512569024 1.7918982224
H -1.8073131502 2.3419206897 2.6830706112
H -0.9286309499 1.3426107985 1.8842284133
O -2.172615863 -2.1169298796 0.3705668079
H -2.406026456 -2.8343630556 0.9650682754
H -1.3236419015 -1.7605114421 0.7021627345
I 0.7353103815 -0.4581619794 1.264476433
Na 0.4446287734 1.2419515642 -1.2852790484
8

O 1.8527599793 2.1491620031 1.4020763607
H 2.1591619994 2.9788858913 1.0283981519
H 1.7827045309 1.5382194532 0.6432597425
O -2.1715729781 -2.6436129707 -0.2642005778
H -2.1976306358 -2.6914582879 -1.2226189257
H -2.8534310029 -1.9928152769 -0.0080379335
I 1.0832144875 -0.0885336226 -1.1889765583
Na -0.2635374792 -1.8245161872 0.7135162385
8

O -1.1038200487 1.6657332836 -2.1219554119
H -1.5444110326 1.7135536644 -2.9739633409
H -1.5430633976 0.9431295993 -1.625785493
O 1.4083106989 0.6943258717 -1.1650130179
H 0.6820214772 1.0183807904 -1.7209926237
H 1.3201193941 1.1975103941 -0.3218636322
I -1.9898124729 -0.922066543 0.0053272276
Na 0.9320239831 -1.5117140163 -0.3076533455
8

O 1.3117905349 0.6309649749 -2.2890034306
H 0.779538301 1.3830644492 -1.9927696822
H 2.2167479867 0.7870620416 -1.9730697196
O -0.5945698595 2.2959821221 -0.8943878956
H -1.2037916256 2.9613513584 -1.2248895577
H -1.1406826355 1.5059296948 -0.6857883588
I -1.9450144017 -0.7228467456 0.1212901156
Na 0.4749293069 -1.3099298552 -1.4027642159
8

O -1.4994756501 0.4145983569 -1.8296357174
H -2.3698170525 0.1427843096 -2.1294324055
H -1.5331062043 0.4102946308 -0.8521796529
O 1.9751821304 0.9900296479 -2.6758108153
H 2.8827842 1.1921481249 -2.9047724907
H 1.6045560519 1.778014061 -2.2227786033
I -0.219263072 0.2723097459 1.3185615278
Na 0.6678290692 -0.4885505615 -1.5725622117
8

O -0.1206484519 -0.8705033644 -3.2069958337
H 0.1624712942 -1.7454765081 -3.4838945326
H -0.4639265301 -0.9939746682 -2.3037067831
O 1.688950594 1.0766834908 -2.5818763402
H 1.9267200943 1.6225613806 -3.332385296
H 1.0998072242 0.369983635 -2.9248726335
I -0.5197360758 -0.9851619099 0.312049547
Na 1.3463362096 1.3112768286 -0.35105014
8

O 2.0132698798 1.2711274045 -1.8042160409
H 1.3267311619 1.5253394452 -1.1690082472
H 1.5256345264 0.7235239709 -2.4381844601
O -0.100394563 -0.2893157323 -2.9710879418
H -0.6082866349 -0.099263339 -3.7639562467
H -0.5729684691 0.1489178778 -2.2358254611
I -1.1626539503 1.1169839868 0.0364311994
Na 0.8577086865 -0.4517975887 1.6843635047
8

O 0.4304430988 1.2015099708 2.5780221766
H 0.8855563312 1.3220349383 3.4150818071
H 0.9825746399 0.5764744362 2.0607638323
O 2.3050180988 2.4942485897 -0.9460911122
H 3.1931306686 2.8549865079 -0.9029844959
H 2.3888232003 1.5630752967 -0.6724542055
I 2.2427678168 -0.8143711709 0.4057634692
Na -0.3414516056 -1.3716189615 -0.9589773873
8

O 2.3838587215 -1.7358140551 -0.2267201657
H 3.086501361 -1.1408890622 -0.5254271589
H 2.1087838188 -1.3870362137 0.6424263299
O 3.8735794721 0.6082186125 -1.0564164902
H 4.7368095527 0.8155714653 -1.4197960584
H 3.841057507 1.0015231006 -0.1549407705
I -1.9450144017 -0.7228467456 0.1212901156
Na 0.4749293069 -1.3099298552 -1.4027642159
8

O -3.8733675858 -1.4485378809 1.1922600843
H -3.9563425632 -0.4910789241 1.3214593212
H -2.9803585913 -1.6591991225 1.5071711806
O 2.4301298094 1.6798503256 -1.6612640062
H 3.1505575441 2.0107782872 -2.2025538307
H 2.8356919635 1.1657121612 -0.9350537855
I 2.2693846378 -0.5599771744 0.859375659
Na 0.5575412668 0.0982557545 -1.5538741696
8

O -0.3334980399 2.3762819955 2.1121183347
H -0.4218659439 2.9292995176 2.8895758152
H -0.4412817101 1.4545972482 2.3978466216
O -1.7304222924 -1.172447983 -1.9349547845
H -2.5542435146 -1.6542736171 -2.0416364368
H -1.5377701422 -1.1767561063 -0.9745069016
I -0.374630597 -0.9679849638 1.2423817019
Na 0.0665829384 1.7677757629 -0.0638649108
8

O 1.4083106989 0.6943258717 -1.1650130179
H 0.6820214772 1.0183807904 -1.7209926237
H 1.3201193941 1.1975103941 -0.3218636322
O -0.3482472529 0.3572793763 2.8241751323
H -0.8097567117 0.4772420725 3.6573307593
H -1.0019069266 -0.0032220575 2.1939197765
I -1.9898124729 -0.922066543 0.0053272276
Na 0.9320239831 -1.5117140163 -0.3076533455
8

O -3.2382352749 0.4871179761 -0.0517108799
H -2.859839429 1.0304648283 0.6554669879
H -3.0702306285 -0.4347568939 0.2057402406
O -1.5975373342 2.0512569024 1.7918982224
H -1.8073131502 2.3419206897 2.6830706112
H -0.9286309499 1.3426107985 1.8842284133
I 0.7353103815 -0.4581619794 1.264476433
Na 0.4446287734 1.2419515642 -1.2852790484
8

O 3.8029448152 -0.4238464865 -1.4266462444
H 3.4457259407 -1.3155899276 -1.3360587254
H 3.0415454312 0.0898478268 -1.7416534282
O 3.9170801401 1.0785022178 0.9359534612
H 3.4791541817 1.9009974764 0.6717149584
H 4.047991103 0.5643739765 0.1148737398
I -2.101230619 -0.2474185567 0.3130304385
Na 0.8765489928 -0.6128181562 0.2472685035
8

O 1.9719304749 -2.5417895911 0.2186275315
H 2.2423203421 -3.0859255526 0.9617713926
H 1.2611810231 -3.0527203295 -0.2350977312
O -0.1536950552 -3.7989782065 -0.8742242731
H -0.2783248535 -3.973703408 -1.8099258724
H -0.8315643619 -3.1385136855 -0.6386165703
I -1.7891889725 -0.8937575094 0.2146010494
Na 1.1113888164 -0.2725536144 0.3802075476
8

O 1.7987061026 0.7114659503 -3.1983702193
H 2.2785658871 0.6085365289 -4.0223041951
H 1.624882689 -0.1958049848 -2.8450716706
O -0.8044666549 1.5010898471 -2.1882572139
H -0.0642918068 1.3928739689 -2.8016950872
H -1.3003040434 0.6690027582 -2.2500130241
I -0.374630597 -0.9679849638 1.2423817019
Na 0.0665829384 1.7677757629 -0.0638649108
8

O -0.1549738388 -2.0608583479 -1.8233857465
H 0.2077938955 -2.6317659166 -2.5051068223
H 0.6106104595 -1.6154831722 -1.4086509898
O 0.9077345912 3.0318609413 -1.198021363
H 1.1701006461 3.2270359574 -2.1004917152
H 1.3705537437 2.2079783381 -0.9663677012
I 2.1979356933 -0.1346044617 -0.0769753737
Na 0.1467998092 0.1747202242 1.9375572857
8

O 1.5713204317 -1.1807453666 2.1669117972
H 2.4150464825 -1.2753353046 2.6120846056
H 1.1735271563 -0.3553124464 2.4976362105
O 2.5710478062 -0.0543637045 -1.0979839258
H 2.1107306207 0.4913813549 -1.7527838581
H 2.7150471559 0.5847986091 -0.3720463061
I -1.4631690114 0.1540089534 -0.2472447389
Na 0.9665626208 -1.5195659215 -0.0210484448
8

O 1.5713204317 -1.1807453666 2.1669117972
H 2.4150464825 -1.2753353046 2.6120846056
H 1.1735271563 -0.3553124464 2.4976362105
O 2.5710478062 -0.0543637045 -1.0979839258
H 2.1107306207 0.4913813549 -1.7527838581
H 2.7150471559 0.5847986091 -0.3720463061
I -1.4631690114 0.1540089534 -0.2472447389
Na 0.9665626208 -1.5195659215 -0.0210484448
8

O 2.3838587215 -1.7358140551 -0.2267201657
H 3.086501361 -1.1408890622 -0.5254271589
H 2.1087838188 -1.3870362137 0.6424263299
O 3.8735794721 0.6082186125 -1.0564164902
H 4.7368095527 0.8155714653 -1.4197960584
H 3.841057507 1.0015231006 -0.1549407705
I -1.9450144017 -0.7228467456 0.1212901156
Na 0.4749293069 -1.3099298552 -1.4027642159
8

O -1.1038200487 1.6657332836 -2.1219554119
H -1.5444110326 1.7135536644 -2.9739633409
H -1.5430633976 0.9431295993 -1.625785493
O 1.4083106989 0.6943258717 -1.1650130179
H 0.6820214772 1.0183807904 -1.7209926237
H 1.3201193941 1.1975103941 -0.3218636322
I -1.9898124729 -0.922066543 0.0053272276
Na 0.9320239831 -1.5117140163 -0.3076533455
8

O -0.8039350174 -1.8231797412 2.1832306773
H -0.7061671218 -2.6306637423 2.694727253
H 0.0040408965 -1.7552328258 1.6331994715
O -2.5924426781 -1.6113342129 -0.0901206921
H -2.0352591753 -1.7603552688 0.6906168185
H -2.0217627976 -1.7431592814 -0.8642488
I 1.6439875058 -1.0501901586 -0.1431825106
Na 0.184121103 1.4436265645 0.6596331736
8

O 1.0233727162 0.4255821853 1.7770953262
H 0.0745978721 0.3609364837 1.9534272775
H 1.0747880341 0.3147322458 0.8147515469
O 0.1802572982 2.4323195086 -1.0565917195
H -0.2368044594 2.9883047023 -1.7198753641
H -0.5487410309 1.8999011574 -0.6738351809
I -2.068376251 -0.0275766506 -0.0385513207
Na 0.1650187251 -1.7534887399 -0.8039564062
8

O -0.3671448842 -2.1455236946 -1.6725799288
H -0.0722902426 -2.7020623962 -2.3976657965
H 0.3206009397 -1.4518598444 -1.5805067092
O -2.8382411198 -0.83312051 -1.191563148
H -2.5208360957 0.0437191836 -0.9263157517
H -2.0535786216 -1.2947916783 -1.5321128624
I 2.0122517558 0.3711148724 -1.0738202193
Na 0.2489334106 1.1538845939 1.0631979972
8

O -1.9611827283 1.4064660872 0.0735503618
H -1.5545341076 1.736500546 0.8902908579
H -1.2149435703 1.0720157899 -0.4527804604
O -2.1715729781 -2.6436129707 -0.2642005778
H -2.1976306358 -2.6914582879 -1.2226189257
H -2.8534310029 -1.9928152769 -0.0080379335
I 1.0832144875 -0.0885336226 -1.1889765583
Na -0.2635374792 -1.8245161872 0.7135162385
8

O -0.3334980399 2.3762819955 2.1121183347
H -0.4218659439 2.9292995176 2.8895758152
H -0.4412817101 1.4545972482 2.3978466216
O -1.7304222924 -1.172447983 -1.9349547845
H -2.5542435146 -1.6542736171 -2.0416364368
H -1.5377701422 -1.1767561063 -0.9745069016
I -0.374630597 -0.9679849638 1.2423817019
Na 0.0665829384 1.7677757629 -0.0638649108
8

O 0.5023482271 2.7067416723 -1.1930933668
H -0.3824287623 2.6353456861 -1.5664021446
H 0.4216538827 2.2771064659 -0.3235540782
O -1.4994756501 0.4145983569 -1.8296357174
H -2.3698170525 0.1427843096 -2.1294324055
H -1.5331062043 0.4102946308 -0.8521796529
I -0.219263072 0.2723097459 1.3185615278
Na 0.6678290692 -0.4885505615 -1.5725622117
8

O 3.8029448152 -0.4238464865 -1.4266462444
H 3.4457259407 -1.3155899276 -1.3360587254
H 3.0415454312 0.0898478268 -1.7416534282
O 3.9170801401 1.0785022178 0.9359534612
H 3.4791541817 1.9009974764 0.6717149584
H 4.047991103 0.5643739765 0.1148737398
I -2.101230619 -0.2474185567 0.3130304385
Na 0.8765489928 -0.6128181562 0.2472685035
8

O 2.8559285973 -2.3483275177 -1.3175676713
H 3.3869124835 -3.0423231874 -0.9214386996
H 3.4543516177 -1.5909675882 -1.4452578317
O 1.1554180932 2.1175640469 1.1511964893
H 0.6201408368 1.6220030749 1.7946127064
H 0.5746402935 2.8223354402 0.8062814965
I -1.9898124729 -0.922066543 0.0053272276
Na 0.9320239831 -1.5117140163 -0.3076533455
8

O -1.3227560008 -1.9330389953 1.5705756194
H -1.3730745675 -2.1418207823 2.505692083
H -0.5875229578 -2.4772116484 1.1992805448
O -2.5572023986 1.8114976147 -1.8356032855
H -1.8732667252 2.3323547145 -1.3915699383
H -2.1129858503 0.9585507832 -1.9946501224
I 2.2644181606 0.2029100323 0.2365926284
Na -0.7965440717 0.2274322154 0.70618134
8

O 2.3050180988 2.4942485897 -0.9460911122
H 3.1931306686 2.8549865079 -0.9029844959
H 2.3888232003 1.5630752967 -0.6724542055
O -2.1437038374 0.4679036145 1.7102272703
H -1.3533699227 0.6627332012 2.2426601464
H -1.8474359065 0.6254353285 0.7921223363
I 2.2427678168 -0.8143711709 0.4057634692
Na -0.3414516056 -1.3716189615 -0.9589773873
8

O 1.9283745271 -1.5676872581 1.2000824238
H 2.0330337454 -2.4067651331 1.6549724883
H 0.9619254603 -1.4474323374 1.0716105469
O -0.1604822241 -0.1305725456 -2.7749887183
H -0.6638982496 -0.5603990911 -3.4705985828
H -0.6023721502 -0.372514574 -1.9329863547
I -1.2311542369 -0.429551461 0.4937110112
Na 1.0478633454 1.5099846687 -0.0117403174
8

O 0.8822250115 2.0822908803 -2.0017724228
H 0.632742727 2.6547866254 -2.7306514305
H 0.0572915428 1.6669910045 -1.6870419632
O 2.5710478062 -0.0543637045 -1.0979839258
H 2.1107306207 0.4913813549 -1.7527838581
H 2.7150471559 0.5847986091 -0.3720463061
I -1.4631690114 0.1540089534 -0.2472447389
Na 0.9665626208 -1.5195659215 -0.0210484448
8

O 0.5023482271 2.7067416723 -1.1930933668
H -0.3824287623 2.6353456861 -1.5664021446
H 0.4216538827 2.2771064659 -0.3235540782
O -1.4994756501 0.4145983569 -1.8296357174
H -2.3698170525 0.1427843096 -2.1294324055
H -1.5331062043 0.4102946308 -0.8521796529
I -0.219263072 0.2723097459 1.3185615278
Na 0.6678290692 -0.4885505615 -1.5725622117
8

O 0.1971843716 1.9704500605 2.0540454207
H 0.7171503307 1.244874375 2.4310525665
H -0.6281514484 1.5631363536 1.747438466
O 1.3742162189 0.9610055373 -1.4616322235
H 0.6218672962 1.022351978 -2.0748716361
H 1.491624031 1.8383374757 -1.0546796988
I -2.101230619 -0.2474185567 0.3130304385
Na 0.8765489928 -0.6128181562 0.2472685035
8

O -3.8733675858 -1.4485378809 1.1922600843
H -3.9563425632 -0.4910789241 1.3214593212
H -2.9803585913 -1.6591991225 1.5071711806
O 2.4301298094 1.6798503256 -1.6612640062
H 3.1505575441 2.0107782872 -2.2025538307
H 2.8356919635 1.1657121612 -0.9350537855
I 2.2693846378 -0.5599771744 0.859375659
Na 0.5575412668 0.0982557545 -1.5538741696
8

O 1.1951880834 -0.534205289 2.0278940565
H 0.3372691219 -0.9790321574 2.0159391347
H 0.9698765237 0.3814710418 1.7966336295
O -0.5945698595 2.2959821221 -0.8943878956
H -1.2037916256 2.9613513584 -1.2248895577
H -1.1406826355 1.5059296948 -0.6857883588
I -1.9450144017 -0.7228467456 0.1212901156
Na 0.4749293069 -1.3099298552 -1.4027642159
8

O -1.9611827283 1.4064660872 0.0735503618
H -1.5545341076 1.736500546 0.8902908579
H -1.2149435703 1.0720157899 -0.4527804604
O -2.1715729781 -2.6436129707 -0.2642005778
H -2.1976306358 -2.6914582879 -1.2226189257
H -2.8534310029 -1.9928152769 -0.0080379335
I 1.0832144875 -0.0885336226 -1.1889765583
Na -0.2635374792 -1.8245161872 0.7135162385
