2

Rb 0.2999999999999999 0.0 0.0
Br 2.7101616448000003 0.0 0.0
2

Rb 0.25000000000000017 0.0 0.0
Br 2.7601616448 0.0 0.0
2

Rb 0.20000000000000004 0.0 0.0
Br 2.8101616448 0.0 0.0
2

Rb 0.04999999999999976 0.0 0.0
Br 2.9601616448000003 0.0 0.0
2

Rb -0.05000000000000009 0.0 0.0
Br 3.0601616448000004 0.0 0.0
2

Rb -0.2999999999999999 0.0 0.0
Br 3.3101616448 0.0 0.0
2

Rb -0.35 0.0 0.0
Br 3.3601616448000002 0.0 0.0
2

Rb -0.5499999999999997 0.0 0.0
Br 3.5601616448 0.0 0.0
2

Rb -0.5999999999999998 0.0 0.0
Br 3.6101616448 0.0 0.0
2

Rb -0.6499999999999999 0.0 0.0
Br 3.6601616448 0.0 0.0
2

Rb -0.7500000000000001 0.0 0.0
Br 3.7601616448 0.0 0.0
2

Rb -0.7999999999999995 0.0 0.0
Br 3.8101616447999995 0.0 0.0
2

Rb -0.8500000000000003 0.0 0.0
Br 3.8601616448000002 0.0 0.0
2

Rb -1.0999999999999994 0.0 0.0
Br 4.1101616448 0.0 0.0
2

Rb -1.2499999999999998 0.0 0.0
Br 4.2601616448 0.0 0.0
2

Rb -1.4000000000000006 0.0 0.0
Br 4.4101616448000005 0.0 0.0
2

Rb -1.4500000000000002 0.0 0.0
Br 4.4601616448 0.0 0.0
2

Rb -1.550000000000001 0.0 0.0
Br 4.560161644800001 0.0 0.0
2

Rb -1.9500000000000004 0.0 0.0
Br 4.9601616448 0.0 0.0
2

Rb -1.9999999999999998 0.0 0.0
Br 5.0101616448 0.0 0.0
2

Rb -2.1 0.0 0.0
Br 5.1101616448 0.0 0.0
2

Rb -2.2000000000000006 0.0 0.0
Br 5.210161644800001 0.0 0.0
2

Rb -2.2500000000000004 0.0 0.0
Br 5.2601616448 0.0 0.0
2

Rb -2.5 0.0 0.0
Br 5.5101616448 0.0 0.0
2

Rb -2.5499999999999994 0.0 0.0
Br 5.5601616448 0.0 0.0
2

Rb -2.6 0.0 0.0
Br 5.610161644800001 0.0 0.0
2

Rb -2.7000000000000006 0.0 0.0
Br 5.7101616448 0.0 0.0
5

O -0.0639642272 -0.5667642372 2.6701299393
H -0.2369770342 -0.4841079488 3.6100865099
H 0.8946727618 -0.7452025901 2.5807221554
Br 1.3618843388 -1.3682541422 -1.0162694298
Rb -0.8781511353 0.8610326394 0.1562491102
5

O 2.5520372348 -0.9869717164 1.9543626059
H 3.1842192415 -1.6319757689 2.2800604015
H 2.314416245 -1.274150924 1.0436040464
Br 1.3618843388 -1.3682541422 -1.0162694298
Rb -0.8781511353 0.8610326394 0.1562491102
5

O 0.3714880371 -2.2459589398 -1.1553649356
H -0.011386295 -2.6875301442 -0.3788820858
H 1.110537601 -1.7175737044 -0.7929918708
Br 2.295419317 -0.1457755054 0.4894217303
Rb -0.3234625002 1.290186057 -0.6741950156
5

O -0.1623495859 -0.9252219152 2.5949522942
H -0.7950937742 -0.2159513114 2.4162533803
H 0.6711603509 -0.6499689656 2.1663390411
Br 2.295419317 -0.1457755054 0.4894217303
Rb -0.3234625002 1.290186057 -0.6741950156
5

O -2.2497577906 0.8272727348 1.416796539
H -2.9352003832 1.1971470702 1.9766712151
H -2.6420894293 0.0337139077 0.9742725492
Br 2.295419317 -0.1457755054 0.4894217303
Rb -0.3234625002 1.290186057 -0.6741950156
5

O -2.1328115302 1.2700126217 1.9067638491
H -2.9824623973 1.5360506492 2.2650125883
H -2.3317593501 0.6545205792 1.1611749179
Br -2.3087541396 -0.7049979634 -0.6021236065
Rb 0.9550416991 -0.5729453825 0.2394492983
5

O -1.1797754153 1.7497285288 -2.2520525969
H -1.806251604 2.1620731769 -2.8508654841
H -1.6497544539 0.9832074483 -1.8379328975
Br -2.3087541396 -0.7049979634 -0.6021236065
Rb 0.9550416991 -0.5729453825 0.2394492983
5

O -1.0897205089 -0.9597508296 2.4320927003
H -0.4650120147 -1.297205431 3.08321439
H -0.841901419 -1.4238988065 1.60766382
Br 0.0741048809 -2.2216763079 -0.382669587
Rb 0.9567998362 0.9654043443 -0.9886651234
5

O 2.5205162381 0.9370424616 1.9479727945
H 1.6634476887 1.3658732744 2.0923974906
H 2.3811233848 -0.0001953939 2.1643190532
Br 0.0741048809 -2.2216763079 -0.382669587
Rb 0.9567998362 0.9654043443 -0.9886651234
5

O -2.8961972033 -1.0379665986 -1.0525153342
H -3.4109661598 -1.6574741405 -1.5753825824
H -2.0377008984 -1.4803425256 -0.8866783676
Br 0.0741048809 -2.2216763079 -0.382669587
Rb 0.9567998362 0.9654043443 -0.9886651234
5

O -0.3266716307 -2.9335106276 -0.0062402152
H 0.015957223 -2.875851713 0.8951051699
H 0.3338348274 -2.4467187504 -0.5271989533
Br 1.8561717607 -0.4865352847 -0.7903768207
Rb -1.129643274 0.2551757975 0.5706902987
5

O 2.4306615879 2.0701927116 1.1802173606
H 3.0540489188 2.6594031312 0.7490708886
H 2.3695494476 1.2926734517 0.5885648951
Br 1.8561717607 -0.4865352847 -0.7903768207
Rb -1.129643274 0.2551757975 0.5706902987
5

O -0.6984300883 -2.5897590305 0.4485496069
H -0.3607363201 -2.4193854866 1.3389975963
H 0.0487815617 -2.3390226078 -0.1188499879
Br 1.8467776882 -0.6682677376 -0.5995690807
Rb -1.1456606647 0.8228927545 -0.2956382112
5

O 0.7761531025 0.0098678425 -2.5167824669
H 1.716689448 -0.1496421279 -2.3856522807
H 0.3684374356 -0.8663535954 -2.5868605191
Br -1.9351382862 -1.2982407723 0.5394990669
Rb -0.1901948824 1.5837134224 -0.2923361776
5

O 1.8705824392 -2.9035561234 -0.6326952537
H 1.5214906512 -2.9427731993 0.2726732298
H 1.084929835 -2.9222856981 -1.204875179
Br -1.9351382862 -1.2982407723 0.5394990669
Rb -0.1901948824 1.5837134224 -0.2923361776
5

O 0.5404584074 -1.0054190265 -2.1741005883
H 0.6284982787 -1.93439446 -1.9381278347
H -0.3622374492 -0.7863824193 -1.884527204
Br -1.8861714553 -0.2086231585 -0.0424399005
Rb 1.4034479556 0.7274882156 -0.019305787
5

O -2.3382749167 1.8999815143 -0.4818643345
H -3.1873346975 2.342794928 -0.5260854825
H -2.5232805184 0.98829428 -0.1942249748
Br -1.7898809708 -1.2106602986 0.4610078832
Rb 0.4546345293 1.2690403654 -0.2559260157
5

O -0.1128211458 -0.9907712207 -2.2817746127
H -0.4692165136 -1.260406451 -3.1308550074
H -0.794065532 -1.2149915647 -1.6129837062
Br -1.7898809708 -1.2106602986 0.4610078832
Rb 0.4546345293 1.2690403654 -0.2559260157
5

O 1.0523478499 -2.2640615416 1.6644602134
H 1.0026372027 -3.0820081737 2.1644937212
H 0.1291415721 -2.0402099203 1.4221921878
Br -1.7898809708 -1.2106602986 0.4610078832
Rb 0.4546345293 1.2690403654 -0.2559260157
5

O 1.960702249 0.4627976037 2.0894073763
H 2.769513375 0.4935704018 1.5632430536
H 1.7595516748 -0.4780454763 2.1977045864
Br -1.7898809708 -1.2106602986 0.4610078832
Rb 0.4546345293 1.2690403654 -0.2559260157
5

O 1.5527437476 2.7931278176 0.157441603
H 1.6654216905 3.6785460628 0.5114818781
H 0.6723337414 2.4915914804 0.4690656685
Br -1.2740710939 1.4441328925 1.0097613366
Rb 0.4621836783 -1.2027209295 -0.345070441
5

O -2.0425436552 -2.5227806579 -0.8748410364
H -2.5318134103 -3.3399222473 -0.7679800093
H -2.7000211566 -1.8043735741 -0.8183225717
Br -1.2740710939 1.4441328925 1.0097613366
Rb 0.4621836783 -1.2027209295 -0.345070441
5

O -0.2597187389 1.2166130537 2.4116928123
H 0.4646729358 1.7583624203 2.0706030702
H 0.1565088652 0.3794587955 2.6680361406
Br 1.8467776882 -0.6682677376 -0.5995690807
Rb -1.1456606647 0.8228927545 -0.2956382112
5

O 1.0189890985 -1.3622933791 2.4675228225
H 1.6726550136 -1.7519382462 3.0528165216
H 1.4825545457 -1.178773892 1.622913045
Br 1.8467776882 -0.6682677376 -0.5995690807
Rb -1.1456606647 0.8228927545 -0.2956382112
5

O 2.8069207204 -0.3971537256 -2.0608790843
H 3.4558718721 -0.6611160571 -2.7155762618
H 2.4114354991 0.4518735518 -2.3771794629
Br -1.2740710939 1.4441328925 1.0097613366
Rb 0.4621836783 -1.2027209295 -0.345070441
5

O 1.6864739267 1.1528948709 1.1709674549
H 2.1419809091 0.3247697205 1.3686024709
H 0.8490748442 1.0965304164 1.6643771891
Br -1.5310848305 0.3814559165 1.6619906332
Rb 0.0646466257 0.6676528454 -1.1346033796
5

O 2.6337039613 -1.6491414529 0.9194224804
H 3.3721776686 -2.156143791 1.2631407649
H 2.7319979515 -1.6222053585 -0.0483021498
Br -1.5310848305 0.3814559165 1.6619906332
Rb 0.0646466257 0.6676528454 -1.1346033796
5

O -0.2258082157 -2.2271121262 -1.9136221924
H -0.759504379 -2.8967443895 -2.3448677764
H -0.2884646915 -2.3905484148 -0.9296081895
Br -1.5310848305 0.3814559165 1.6619906332
Rb 0.0646466257 0.6676528454 -1.1346033796
5

O 1.5884501763 -0.2686281698 2.121442921
H 2.3608745758 -0.707190554 1.7467895702
H 0.901778886 -0.9495038758 2.2170803366
Br -2.0847427788 0.1071337349 -0.0878620908
Rb 0.9815793963 1.1326426231 -0.2756309048
5

O -1.4029970753 0.3547088659 1.8496088461
H -2.1160474263 0.94705189 1.5892898997
H -1.5646678317 -0.446442639 1.3193769759
Br -1.4111128713 -1.7469803346 -0.7063296601
Rb 0.9612392428 0.6463776438 -0.1367494179
5

O 1.2101551462 -2.1534313172 1.1676087359
H 1.6203362499 -3.020578238 1.1920310985
H 0.3703614429 -2.2682673903 0.6778891868
Br -1.4111128713 -1.7469803346 -0.7063296601
Rb 0.9612392428 0.6463776438 -0.1367494179
5

O -3.0813383019 1.0292189133 -0.5669583673
H -3.9579755303 0.9923657632 -0.9560479351
H -2.6923675321 0.1388870941 -0.7061200353
Br -1.4111128713 -1.7469803346 -0.7063296601
Rb 0.9612392428 0.6463776438 -0.1367494179
5

O 0.5212599515 0.2779114203 -2.4986860697
H -0.2029268522 0.8925739428 -2.688444066
H 0.0948049992 -0.5612128419 -2.2644979778
Br -0.3407965638 -2.29240237 -0.50021763
Rb -0.0923188723 1.1679272092 0.3802140212
5

O 3.8270750317 -0.074493189 0.99857843
H 4.7497011393 -0.3186866213 1.0930840681
H 3.5223224262 -0.4270226894 0.1264468396
Br -0.3407965638 -2.29240237 -0.50021763
Rb -0.0923188723 1.1679272092 0.3802140212
5

O -1.757917487 1.9288339419 -2.0656878137
H -2.3135060866 2.4807037848 -2.6189355492
H -2.3302708179 1.2099507652 -1.7130965232
Br -0.3407965638 -2.29240237 -0.50021763
Rb -0.0923188723 1.1679272092 0.3802140212
5

O -2.9702875128 -1.3165622203 -0.3442888468
H -3.7805886563 -1.8255303024 -0.3871067773
H -2.26829018 -1.9308965807 -0.0446736747
Br 1.8467776882 -0.6682677376 -0.5995690807
Rb -1.1456606647 0.8228927545 -0.2956382112
5

O -0.5300573388 1.6224318854 -2.4551355967
H -0.7863837721 1.8382020746 -3.3544752343
H -1.0395950585 0.813093606 -2.2137414114
Br -2.012026912 -0.962668464 -1.2616899229
Rb 0.5982954461 -0.8555504427 0.8176589101
5

O -0.7497616336 3.0183322981 0.0315849816
H -0.8049628649 2.6954373674 -0.882929028
H -1.2488226016 2.3690894076 0.5594013272
Br -2.012026912 -0.962668464 -1.2616899229
Rb 0.5982954461 -0.8555504427 0.8176589101
5

O 1.9300727001 1.0023781689 -1.2127015013
H 2.1077240679 1.7989299311 -0.6902889924
H 1.1903532304 1.2282778061 -1.8018512267
Br -2.012026912 -0.962668464 -1.2616899229
Rb 0.5982954461 -0.8555504427 0.8176589101
5

O -3.116522573 -0.1728992738 1.2471461673
H -3.5324861112 -0.0002090618 0.3911874061
H -2.4598277434 0.5432625536 1.3052073681
Br -0.6415883938 1.8293153303 0.2682225316
Rb 1.1252160134 -0.9755071344 0.5247463769
5

O 3.6408659898 0.2061311948 -0.0314098643
H 4.4814053754 0.6490443923 0.0905888931
H 3.1681990821 0.6976431514 -0.736732836
Br -0.6415883938 1.8293153303 0.2682225316
Rb 1.1252160134 -0.9755071344 0.5247463769
5

O -3.0310924567 0.6511506769 -1.5664091288
H -3.4680590677 1.251831146 -2.1742110826
H -2.2991119736 1.1594763054 -1.1541743392
Br -0.6415883938 1.8293153303 0.2682225316
Rb 1.1252160134 -0.9755071344 0.5247463769
5

O 0.4519810797 1.726639867 2.3095894698
H 1.0510808817 0.9809449139 2.4579296541
H -0.3973280837 1.3271275907 2.0359577375
Br -2.0699165735 0.2219704354 0.798678393
Rb 0.6092322777 -1.5410427861 0.1266445913
5

O 0.1064529294 1.028732886 -3.2295235856
H 0.0925648287 1.4013292101 -4.1131843719
H -0.4227777967 1.6390906024 -2.6479408998
Br -2.0699165735 0.2219704354 0.798678393
Rb 0.6092322777 -1.5410427861 0.1266445913
5

O -1.1681509942 2.5282830768 -1.4540837489
H -0.4716936185 2.9176145597 -0.9021437674
H -1.6394901998 1.9275894351 -0.8472518312
Br -2.0699165735 0.2219704354 0.798678393
Rb 0.6092322777 -1.5410427861 0.1266445913
5

O -1.4715320781 1.3994443509 -1.9548051627
H -2.2348279268 1.6351778427 -2.4877915997
H -1.7578295131 0.6377307108 -1.4014736151
Br -2.0271363001 -0.9824087465 0.1658282298
Rb 1.253005903 -1.1619212121 -0.1498960339
5

O -0.52180361 2.9368771987 0.2512892572
H -0.9203174034 2.4644099592 1.0014930981
H -0.8823712254 2.5157922916 -0.5478855039
Br -2.0271363001 -0.9824087465 0.1658282298
Rb 1.253005903 -1.1619212121 -0.1498960339
5

O 2.086493451 2.9525263312 0.6706470577
H 2.3754495156 3.8462052307 0.8640071042
H 1.1144973403 3.0044208973 0.4653945743
Br -2.0271363001 -0.9824087465 0.1658282298
Rb 1.253005903 -1.1619212121 -0.1498960339
5

O 2.0678141567 2.4822918614 0.5889146912
H 1.7125752782 2.7712129592 -0.263656826
H 1.2717171553 2.3795988623 1.132715934
Br -1.1809370108 1.6210120567 1.1690351802
Rb 0.742526376 -0.9011815224 -0.0194678723
5

O -0.6455659111 0.2462028103 -2.4281278516
H -0.2955355197 1.148850493 -2.4601443129
H -1.530472268 0.3518208836 -2.0480314261
Br -1.1809370108 1.6210120567 1.1690351802
Rb 0.742526376 -0.9011815224 -0.0194678723
5

O 0.0364734219 -3.6389703354 -0.30698923
H 0.0051424213 -4.5885565296 -0.1848390192
H -0.6917957434 -3.4087351445 -0.9158737408
Br -1.1809370108 1.6210120567 1.1690351802
Rb 0.742526376 -0.9011815224 -0.0194678723
5

O 2.4152571777 1.4930318687 0.293854371
H 2.7188252475 1.0643885689 1.1022466226
H 2.2888568815 0.7482516565 -0.321577081
Br 1.3618843388 -1.3682541422 -1.0162694298
Rb -0.8781511353 0.8610326394 0.1562491102
8

O 1.71574705 2.1807043153 -0.3867184627
H 2.2903384641 2.7917569497 0.0796439015
H 0.8249078588 2.2997941906 -0.009201167
O 0.8861536743 -0.7445893505 -3.4604077149
H 1.070715959 -0.9573357769 -4.3759523832
H 0.6216229684 0.1973322926 -3.4413968318
Br -1.4628210206 1.6838439673 0.0895770201
Rb 0.9103908223 -0.7604347981 -0.5986332299
8

O -3.3936676082 -0.8421852784 0.767075101
H -4.3147856063 -0.7626741265 0.5086366494
H -2.9584065183 -0.0163537417 0.4709203872
O 2.7389932043 -1.9904145925 1.229264249
H 3.4993580501 -2.3065697389 1.7183123906
H 1.9639139416 -2.0864545424 1.8161383993
Br -1.4628210206 1.6838439673 0.0895770201
Rb 0.9103908223 -0.7604347981 -0.5986332299
8

O -0.1128211458 -0.9907712207 -2.2817746127
H -0.4692165136 -1.260406451 -3.1308550074
H -0.794065532 -1.2149915647 -1.6129837062
O -2.3382749167 1.8999815143 -0.4818643345
H -3.1873346975 2.342794928 -0.5260854825
H -2.5232805184 0.98829428 -0.1942249748
Br -1.7898809708 -1.2106602986 0.4610078832
Rb 0.4546345293 1.2690403654 -0.2559260157
8

O -0.1128211458 -0.9907712207 -2.2817746127
H -0.4692165136 -1.260406451 -3.1308550074
H -0.794065532 -1.2149915647 -1.6129837062
O 2.2333075985 -1.6453096854 -0.8464770312
H 1.4794868498 -1.6176520565 -1.4579923916
H 1.8950224162 -2.032339483 -0.021728303
Br -1.7898809708 -1.2106602986 0.4610078832
Rb 0.4546345293 1.2690403654 -0.2559260157
8

O 1.0523478499 -2.2640615416 1.6644602134
H 1.0026372027 -3.0820081737 2.1644937212
H 0.1291415721 -2.0402099203 1.4221921878
O -2.3382749167 1.8999815143 -0.4818643345
H -3.1873346975 2.342794928 -0.5260854825
H -2.5232805184 0.98829428 -0.1942249748
Br -1.7898809708 -1.2106602986 0.4610078832
Rb 0.4546345293 1.2690403654 -0.2559260157
8

O 1.0523478499 -2.2640615416 1.6644602134
H 1.0026372027 -3.0820081737 2.1644937212
H 0.1291415721 -2.0402099203 1.4221921878
O 1.960702249 0.4627976037 2.0894073763
H 2.769513375 0.4935704018 1.5632430536
H 1.7595516748 -0.4780454763 2.1977045864
Br -1.7898809708 -1.2106602986 0.4610078832
Rb 0.4546345293 1.2690403654 -0.2559260157
8

O -1.5070546032 -2.7048801451 -0.4600144663
H -1.2504277049 -2.7373357111 0.4744743335
H -2.2337875432 -2.061442575 -0.5070277041
O -2.3053860112 -0.2529796665 2.4948374204
H -2.9976758027 -0.4877872509 1.8626092782
H -1.9285325588 0.5555861311 2.1062292232
Br -1.1236562394 1.7925896556 0.1291172581
Rb 1.073883945 -0.7198489761 -0.1481032774
8

O 3.2496639482 0.8920816208 0.7351354988
H 4.1022811581 0.9300847995 1.1706003053
H 2.8208004288 1.7568553062 0.903389115
O 1.7293486183 3.1331925762 1.1485235199
H 1.8284740936 3.938632566 0.6358305556
H 0.8261857978 2.8215578118 0.9520650756
Br -1.1236562394 1.7925896556 0.1291172581
Rb 1.073883945 -0.7198489761 -0.1481032774
8

O -3.3624772787 -0.5727178467 -0.2556787862
H -4.1510581886 -0.364273805 -0.761777848
H -2.7832195333 0.2128804696 -0.3193376095
O 1.7293486183 3.1331925762 1.1485235199
H 1.8284740936 3.938632566 0.6358305556
H 0.8261857978 2.8215578118 0.9520650756
Br -1.1236562394 1.7925896556 0.1291172581
Rb 1.073883945 -0.7198489761 -0.1481032774
8

O -3.2360612405 -0.8740373167 -1.6878166351
H -3.7153860103 -1.2801212212 -2.413567744
H -2.4535333594 -1.4386910489 -1.5335569545
O -1.8462669871 1.6476231596 -1.4932380716
H -2.2355718604 2.0364989328 -0.6977125397
H -2.4026242209 0.8760243396 -1.6868140503
Br -0.4796329518 -2.289684273 -0.5836145266
Rb 0.800211865 0.74057848 -0.8556510043
8

O -3.2360612405 -0.8740373167 -1.6878166351
H -3.7153860103 -1.2801212212 -2.413567744
H -2.4535333594 -1.4386910489 -1.5335569545
O -0.1932265539 -0.5140468228 3.2631062497
H -1.0342217713 -0.9544282791 3.1089297361
H 0.4955771096 -1.0841937637 2.8570256218
Br -0.4796329518 -2.289684273 -0.5836145266
Rb 0.800211865 0.74057848 -0.8556510043
8

O -3.5354465962 -0.1808277708 -0.7076040135
H -4.4482923826 -0.0231382149 -0.456911056
H -2.9945491522 0.3417479719 -0.0816510524
O -1.014904451 0.81691885 -2.1795072872
H -1.8744293473 0.557883217 -2.5241657465
H -1.2090669421 1.2071917466 -1.3049583577
Br -1.2740710939 1.4441328925 1.0097613366
Rb 0.4621836783 -1.2027209295 -0.345070441
8

O 1.5413899743 1.9038180708 -2.5804212499
H 1.5712959765 2.3936670911 -1.7428939717
H 0.6088417039 1.6557563214 -2.6890066225
O -1.014904451 0.81691885 -2.1795072872
H -1.8744293473 0.557883217 -2.5241657465
H -1.2090669421 1.2071917466 -1.3049583577
Br -1.2740710939 1.4441328925 1.0097613366
Rb 0.4621836783 -1.2027209295 -0.345070441
8

O -2.0425436552 -2.5227806579 -0.8748410364
H -2.5318134103 -3.3399222473 -0.7679800093
H -2.7000211566 -1.8043735741 -0.8183225717
O 2.2181009876 -1.8612411112 1.8409588889
H 2.3314360728 -2.0069316643 2.7811613854
H 2.6530178241 -1.0120977755 1.6362253727
Br -1.2740710939 1.4441328925 1.0097613366
Rb 0.4621836783 -1.2027209295 -0.345070441
8

O -0.6773952798 1.0649161587 2.3915376118
H 0.2526262485 1.297410814 2.5252306528
H -1.0888863762 1.8384528851 1.9782293692
O 1.9213172391 -1.4850314598 1.786925281
H 2.1940091685 -1.4269840519 0.860935439
H 2.1285024234 -0.6121880127 2.1495329204
Br 1.4963575844 -0.653364001 -1.5354817978
Rb -0.8704491398 -1.3398115938 0.8504017651
8

O 2.5118754535 2.1040330262 -0.2338238035
H 3.3479459894 2.3482358807 -0.6397087346
H 2.262241696 1.2458226269 -0.6518130714
O 1.9213172391 -1.4850314598 1.786925281
H 2.1940091685 -1.4269840519 0.860935439
H 2.1285024234 -0.6121880127 2.1495329204
Br 1.4963575844 -0.653364001 -1.5354817978
Rb -0.8704491398 -1.3398115938 0.8504017651
8

O 2.4152571777 1.4930318687 0.293854371
H 2.7188252475 1.0643885689 1.1022466226
H 2.2888568815 0.7482516565 -0.321577081
O -1.3639444581 -2.3355667585 0.7516453645
H -0.9394094778 -1.9861303972 1.5488469139
H -0.6480978978 -2.3679615305 0.0955781241
Br 1.3618843388 -1.3682541422 -1.0162694298
Rb -0.8781511353 0.8610326394 0.1562491102
8

O 0.4465435133 3.385893231 0.0819040245
H 0.670800551 4.2582746929 -0.244643475
H 1.28720873 2.8961172234 0.1659650554
O -0.0639642272 -0.5667642372 2.6701299393
H -0.2369770342 -0.4841079488 3.6100865099
H 0.8946727618 -0.7452025901 2.5807221554
Br 1.3618843388 -1.3682541422 -1.0162694298
Rb -0.8781511353 0.8610326394 0.1562491102
8

O 0.7761531025 0.0098678425 -2.5167824669
H 1.716689448 -0.1496421279 -2.3856522807
H 0.3684374356 -0.8663535954 -2.5868605191
O -2.9835958604 1.8399047253 0.3546292865
H -3.8991501959 2.1165387009 0.4175870517
H -2.9817440514 0.8800841431 0.5090175816
Br -1.9351382862 -1.2982407723 0.5394990669
Rb -0.1901948824 1.5837134224 -0.2923361776
8

O -2.9835958604 1.8399047253 0.3546292865
H -3.8991501959 2.1165387009 0.4175870517
H -2.9817440514 0.8800841431 0.5090175816
O -0.5075331762 -2.5150227522 -2.1228105862
H -1.0473504687 -3.1039962465 -2.6546931393
H -1.078325451 -2.2031450044 -1.3885958024
Br -1.9351382862 -1.2982407723 0.5394990669
Rb -0.1901948824 1.5837134224 -0.2923361776
8

O 2.3824006043 -0.1977155686 1.8220996882
H 2.8546071931 -0.3837384885 0.9972532859
H 1.81915357 -0.9726824232 1.98719626
O 0.7156087393 -2.4711280921 1.9406599963
H 0.5410866606 -3.0530701299 2.6839756841
H -0.1603191827 -2.1553112867 1.6258271872
Br -1.9351382862 -1.2982407723 0.5394990669
Rb -0.1901948824 1.5837134224 -0.2923361776
8

O 1.8705824392 -2.9035561234 -0.6326952537
H 1.5214906512 -2.9427731993 0.2726732298
H 1.084929835 -2.9222856981 -1.204875179
O 2.6697225201 2.1932090039 -0.756494691
H 3.0292743497 1.2979937449 -0.802382932
H 2.7091910453 2.4457758221 0.1748903324
Br -1.9351382862 -1.2982407723 0.5394990669
Rb -0.1901948824 1.5837134224 -0.2923361776
8

O 0.7761531025 0.0098678425 -2.5167824669
H 1.716689448 -0.1496421279 -2.3856522807
H 0.3684374356 -0.8663535954 -2.5868605191
O 1.8705824392 -2.9035561234 -0.6326952537
H 1.5214906512 -2.9427731993 0.2726732298
H 1.084929835 -2.9222856981 -1.204875179
Br -1.9351382862 -1.2982407723 0.5394990669
Rb -0.1901948824 1.5837134224 -0.2923361776
8

O -1.4715320781 1.3994443509 -1.9548051627
H -2.2348279268 1.6351778427 -2.4877915997
H -1.7578295131 0.6377307108 -1.4014736151
O 1.0039481413 0.1510638813 -2.7198965231
H 1.712353559 0.751887038 -2.457551249
H 0.1818367052 0.6623532557 -2.6717301524
Br -2.0271363001 -0.9824087465 0.1658282298
Rb 1.253005903 -1.1619212121 -0.1498960339
8

O 3.1529221219 1.0610599175 -1.0044258008
H 4.0761250722 1.1984941176 -1.2248674302
H 2.8922053 1.8179195057 -0.4410988313
O 2.086493451 2.9525263312 0.6706470577
H 2.3754495156 3.8462052307 0.8640071042
H 1.1144973403 3.0044208973 0.4653945743
Br -2.0271363001 -0.9824087465 0.1658282298
Rb 1.253005903 -1.1619212121 -0.1498960339
8

O -1.4715320781 1.3994443509 -1.9548051627
H -2.2348279268 1.6351778427 -2.4877915997
H -1.7578295131 0.6377307108 -1.4014736151
O 1.476841516 0.5303343107 2.1659988241
H 1.8501175692 1.3837417241 1.9063772357
H 0.5757893088 0.7403352676 2.4570035451
Br -2.0271363001 -0.9824087465 0.1658282298
Rb 1.253005903 -1.1619212121 -0.1498960339
8

O -1.2405992581 1.9778812294 -0.6347563815
H -1.03132648 2.5493820307 -1.3759126066
H -0.3827030002 1.7683263914 -0.2052258251
O 0.7785934955 -1.0634560507 -2.0729931322
H 1.4243773766 -1.2232752431 -2.7630082049
H 1.2357720665 -0.5273665259 -1.3952871475
Br 1.403397053 0.6465335584 0.6383386193
Rb -1.4408904637 -1.1195908622 -0.2953520186
8

O 0.0273588236 -2.0112031116 1.9574496979
H 0.2849488337 -2.3593194878 2.8124249681
H 0.6332431751 -1.2665370063 1.7767367688
O 0.7785934955 -1.0634560507 -2.0729931322
H 1.4243773766 -1.2232752431 -2.7630082049
H 1.2357720665 -0.5273665259 -1.3952871475
Br 1.403397053 0.6465335584 0.6383386193
Rb -1.4408904637 -1.1195908622 -0.2953520186
8

O 0.0273588236 -2.0112031116 1.9574496979
H 0.2849488337 -2.3593194878 2.8124249681
H 0.6332431751 -1.2665370063 1.7767367688
O -3.4779377918 0.8000777224 0.4214254177
H -3.9805196723 1.1971259625 1.1344448487
H -2.8312642906 1.4686848494 0.1348302287
Br 1.403397053 0.6465335584 0.6383386193
Rb -1.4408904637 -1.1195908622 -0.2953520186
8

O -0.6773952798 1.0649161587 2.3915376118
H 0.2526262485 1.297410814 2.5252306528
H -1.0888863762 1.8384528851 1.9782293692
O -2.5834097296 0.6968717223 -0.718394618
H -2.0977074641 0.8610104653 -1.5426730414
H -2.5190448255 1.5229652933 -0.2110545793
Br 1.4963575844 -0.653364001 -1.5354817978
Rb -0.8704491398 -1.3398115938 0.8504017651
8

O 0.7785934955 -1.0634560507 -2.0729931322
H 1.4243773766 -1.2232752431 -2.7630082049
H 1.2357720665 -0.5273665259 -1.3952871475
O -3.4779377918 0.8000777224 0.4214254177
H -3.9805196723 1.1971259625 1.1344448487
H -2.8312642906 1.4686848494 0.1348302287
Br 1.403397053 0.6465335584 0.6383386193
Rb -1.4408904637 -1.1195908622 -0.2953520186
8

O -1.2699988329 -3.0551366496 0.0134493883
H -1.79426531 -2.2849799548 0.2844528409
H -1.0608767798 -2.886497447 -0.9192900901
O 0.4018877549 -0.4004820258 2.6643468257
H 0.6053257858 -1.3414454416 2.5571765768
H -0.500436995 -0.2895147907 2.3266037729
Br -2.1581458265 0.1828185348 0.5615080583
Rb 1.145826485 -0.5156677347 -0.3488211693
8

O 0.4018877549 -0.4004820258 2.6643468257
H 0.6053257858 -1.3414454416 2.5571765768
H -0.500436995 -0.2895147907 2.3266037729
O 1.0004530846 -2.928621758 1.4585827427
H 1.3205593023 -3.7509026871 1.8337622831
H 0.1579124978 -3.1354660522 0.9924602122
Br -2.1581458265 0.1828185348 0.5615080583
Rb 1.145826485 -0.5156677347 -0.3488211693
8

O -1.1763335147 -2.5119039484 0.8547543912
H -0.5541154878 -2.6540053415 0.1216897645
H -0.6934757773 -1.9692615264 1.5017374952
O 0.2700255947 -0.6162350261 2.3735201009
H 0.5126579776 -0.7018113056 3.298064384
H 1.1129010794 -0.6294061257 1.8651645248
Br 2.5180952877 -0.3378274954 0.1304570155
Rb -0.3837863657 1.2758880046 0.0852189095
8

O -3.1497978937 1.2453086326 0.8207558641
H -3.8894759872 1.6187130332 1.3019765232
H -3.4133800801 0.3377662689 0.5766290694
O -3.4070974029 -1.3801383397 -0.0426905345
H -4.1480873777 -1.9883320615 -0.0161993087
H -2.6277582979 -1.8580041965 0.3425768523
Br 2.5180952877 -0.3378274954 0.1304570155
Rb -0.3837863657 1.2758880046 0.0852189095
8

O -1.4249381988 -0.4235327702 -1.9639720088
H -2.2430548534 -0.8067211944 -1.6203484191
H -0.7948991696 -1.160229217 -1.998227539
O -3.4070974029 -1.3801383397 -0.0426905345
H -4.1480873777 -1.9883320615 -0.0161993087
H -2.6277582979 -1.8580041965 0.3425768523
Br 2.5180952877 -0.3378274954 0.1304570155
Rb -0.3837863657 1.2758880046 0.0852189095
8

O -3.1497978937 1.2453086326 0.8207558641
H -3.8894759872 1.6187130332 1.3019765232
H -3.4133800801 0.3377662689 0.5766290694
O 0.2700255947 -0.6162350261 2.3735201009
H 0.5126579776 -0.7018113056 3.298064384
H 1.1129010794 -0.6294061257 1.8651645248
Br 2.5180952877 -0.3378274954 0.1304570155
Rb -0.3837863657 1.2758880046 0.0852189095
8

O 0.8492712603 -1.3806790763 2.1490737444
H 1.3958697951 -1.3428234259 2.9369886623
H 1.4373182618 -1.1538725167 1.3997499961
O -0.3266716307 -2.9335106276 -0.0062402152
H 0.015957223 -2.875851713 0.8951051699
H 0.3338348274 -2.4467187504 -0.5271989533
Br 1.8561717607 -0.4865352847 -0.7903768207
Rb -1.129643274 0.2551757975 0.5706902987
8

O 0.8492712603 -1.3806790763 2.1490737444
H 1.3958697951 -1.3428234259 2.9369886623
H 1.4373182618 -1.1538725167 1.3997499961
O -0.1963536472 2.6966237913 1.6496837472
H -0.3229856674 3.5087633654 2.1417531538
H 0.7714185086 2.601635329 1.5226275445
Br 1.8561717607 -0.4865352847 -0.7903768207
Rb -1.129643274 0.2551757975 0.5706902987
8

O -1.8686505671 3.0450430789 0.7003291781
H -2.3548596949 3.8537312565 0.8713735873
H -1.1414531468 3.2730523624 0.0694271979
O -2.5834097296 0.6968717223 -0.718394618
H -2.0977074641 0.8610104653 -1.5426730414
H -2.5190448255 1.5229652933 -0.2110545793
Br 1.4963575844 -0.653364001 -1.5354817978
Rb -0.8704491398 -1.3398115938 0.8504017651
8

O -0.1623495859 -0.9252219152 2.5949522942
H -0.7950937742 -0.2159513114 2.4162533803
H 0.6711603509 -0.6499689656 2.1663390411
O 0.3714880371 -2.2459589398 -1.1553649356
H -0.011386295 -2.6875301442 -0.3788820858
H 1.110537601 -1.7175737044 -0.7929918708
Br 2.295419317 -0.1457755054 0.4894217303
Rb -0.3234625002 1.290186057 -0.6741950156
8

O -0.1905260115 -2.7530081427 1.3489076462
H -0.6210135537 -3.5018353764 1.7675679261
H -0.9030150334 -2.2497831752 0.8981155288
O 3.7667760992 -0.9388710561 0.5887385254
H 4.6965407042 -1.1636682726 0.6595230168
H 3.7174285134 -0.0578785711 0.1703798849
Br -2.226749192 -0.8244414421 -0.2984165685
Rb 0.2043974506 1.3774344564 0.462343231
8

O 1.3204116768 1.360490375 -2.3671464744
H 1.2200792234 1.770005669 -3.2281128707
H 0.9708335936 0.423748516 -2.4538745969
O 3.7667760992 -0.9388710561 0.5887385254
H 4.6965407042 -1.1636682726 0.6595230168
H 3.7174285134 -0.0578785711 0.1703798849
Br -2.226749192 -0.8244414421 -0.2984165685
Rb 0.2043974506 1.3774344564 0.462343231
8

O -2.6163273162 1.5670356656 -0.42826249
H -3.460702641 2.0182715243 -0.3800395814
H -2.7347282054 0.7230038378 0.0406920025
O -2.08239757 -2.3324165472 -2.1990681414
H -2.9659515295 -2.1158556861 -2.505642835
H -2.1071064773 -2.185445213 -1.231701104
Br -1.9214512043 -1.365241071 0.9227249143
Rb 0.2290079305 1.0112433228 -0.377056482
8

O 0.0945943175 -0.8389173603 -2.7681872389
H 0.2795782437 -0.8031853193 -3.7088591712
H -0.7290079156 -1.3710063184 -2.6688341995
O -2.6163273162 1.5670356656 -0.42826249
H -3.460702641 2.0182715243 -0.3800395814
H -2.7347282054 0.7230038378 0.0406920025
Br -1.9214512043 -1.365241071 0.9227249143
Rb 0.2290079305 1.0112433228 -0.377056482
8

O 0.0945943175 -0.8389173603 -2.7681872389
H 0.2795782437 -0.8031853193 -3.7088591712
H -0.7290079156 -1.3710063184 -2.6688341995
O -2.08239757 -2.3324165472 -2.1990681414
H -2.9659515295 -2.1158556861 -2.505642835
H -2.1071064773 -2.185445213 -1.231701104
Br -1.9214512043 -1.365241071 0.9227249143
Rb 0.2290079305 1.0112433228 -0.377056482
8

O 4.1567952079 -0.2532206746 -0.2374143815
H 5.0180176808 -0.6351059281 -0.4160604011
H 3.4874084543 -0.8402482509 -0.6575333854
O -2.08239757 -2.3324165472 -2.1990681414
H -2.9659515295 -2.1158556861 -2.505642835
H -2.1071064773 -2.185445213 -1.231701104
Br -1.9214512043 -1.365241071 0.9227249143
Rb 0.2290079305 1.0112433228 -0.377056482
8

O -0.6455659111 0.2462028103 -2.4281278516
H -0.2955355197 1.148850493 -2.4601443129
H -1.530472268 0.3518208836 -2.0480314261
O 2.0678141567 2.4822918614 0.5889146912
H 1.7125752782 2.7712129592 -0.263656826
H 1.2717171553 2.3795988623 1.132715934
Br -1.1809370108 1.6210120567 1.1690351802
Rb 0.742526376 -0.9011815224 -0.0194678723
8

O -3.0412371499 -0.1293721827 -0.8438952867
H -3.9590444204 0.1499525844 -0.8724728762
H -2.6282627615 0.3719254143 -0.1094047773
O 2.0678141567 2.4822918614 0.5889146912
H 1.7125752782 2.7712129592 -0.263656826
H 1.2717171553 2.3795988623 1.132715934
Br -1.1809370108 1.6210120567 1.1690351802
Rb 0.742526376 -0.9011815224 -0.0194678723
8

O 0.7456141072 -2.4721495277 -0.7032436297
H -0.0598167448 -2.3046112424 -1.2162217507
H 0.4418031934 -2.6666506944 0.2008250316
O -1.5081638188 -1.1916394269 -1.8899916215
H -2.2204858438 -1.4569544414 -2.4756670353
H -1.9321128775 -0.9077316408 -1.0524752479
Br -2.0694086544 0.0205676525 1.0646306149
Rb 0.6386991927 0.701149596 -0.8603737665
8

O -0.279867787 -2.5688107941 1.9043769565
H -0.6815528797 -3.2754366574 2.4148710224
H -0.9843251008 -1.9036198854 1.7530602873
O 1.0946128296 0.0121600857 2.1600834393
H 1.0666170902 -0.9372666709 2.330072136
H 0.1540213551 0.2524121497 2.1370883078
Br -2.0694086544 0.0205676525 1.0646306149
Rb 0.6386991927 0.701149596 -0.8603737665
8

O 3.1286608809 1.2556851122 0.5453415439
H 3.471674065 0.4680947246 0.1048593983
H 2.6658510496 0.9138835992 1.3245162505
O 3.004934755 -1.0737773728 -1.3115910839
H 3.6802603476 -1.5210921187 -1.8244097992
H 2.3279299449 -1.7457434524 -1.0940035943
Br -2.0694086544 0.0205676525 1.0646306149
Rb 0.6386991927 0.701149596 -0.8603737665
8

O -0.6984300883 -2.5897590305 0.4485496069
H -0.3607363201 -2.4193854866 1.3389975963
H 0.0487815617 -2.3390226078 -0.1188499879
O -0.2597187389 1.2166130537 2.4116928123
H 0.4646729358 1.7583624203 2.0706030702
H 0.1565088652 0.3794587955 2.6680361406
Br 1.8467776882 -0.6682677376 -0.5995690807
Rb -1.1456606647 0.8228927545 -0.2956382112
8

O -0.6984300883 -2.5897590305 0.4485496069
H -0.3607363201 -2.4193854866 1.3389975963
H 0.0487815617 -2.3390226078 -0.1188499879
O 1.3982213139 2.4046094976 0.3522381634
H 2.0642170771 3.0787730022 0.2024891385
H 1.7979475306 1.5599259687 0.0617026834
Br 1.8467776882 -0.6682677376 -0.5995690807
Rb -1.1456606647 0.8228927545 -0.2956382112
8

O -1.042525124 -3.0232502778 1.1966899108
H -1.0275374729 -3.8484070893 1.6852121009
H -0.6810659254 -2.3222206175 1.7973535187
O -0.1623495859 -0.9252219152 2.5949522942
H -0.7950937742 -0.2159513114 2.4162533803
H 0.6711603509 -0.6499689656 2.1663390411
Br 2.295419317 -0.1457755054 0.4894217303
Rb -0.3234625002 1.290186057 -0.6741950156
8

O 1.0189890985 -1.3622933791 2.4675228225
H 1.6726550136 -1.7519382462 3.0528165216
H 1.4825545457 -1.178773892 1.622913045
O 1.3982213139 2.4046094976 0.3522381634
H 2.0642170771 3.0787730022 0.2024891385
H 1.7979475306 1.5599259687 0.0617026834
Br 1.8467776882 -0.6682677376 -0.5995690807
Rb -1.1456606647 0.8228927545 -0.2956382112
8

O 1.6834725516 1.9184606109 -1.5091461904
H 2.4563781486 2.1410626768 -2.032709214
H 1.8874251175 1.0556346764 -1.0815863904
O 0.7147941648 2.1818859581 1.2982255677
H 0.9889027843 2.5735147624 0.4599814773
H 1.2127057359 1.345472828 1.3259302659
Br 1.957964346 -0.7224331275 0.3077754485
Rb -1.3871505718 -0.0883000488 0.1231549079
8

O -1.0111497587 1.645129077 -2.1112452075
H -1.383080477 2.3203799377 -2.6804190677
H -0.0513110926 1.8151405881 -2.079006065
O 0.7147941648 2.1818859581 1.2982255677
H 0.9889027843 2.5735147624 0.4599814773
H 1.2127057359 1.345472828 1.3259302659
Br 1.957964346 -0.7224331275 0.3077754485
Rb -1.3871505718 -0.0883000488 0.1231549079
8

O -1.0111497587 1.645129077 -2.1112452075
H -1.383080477 2.3203799377 -2.6804190677
H -0.0513110926 1.8151405881 -2.079006065
O -0.5570551282 -2.7867029417 -0.2400632096
H -0.4789669791 -3.7387078754 -0.3186208421
H 0.350664679 -2.4499548243 -0.1277838907
Br 1.957964346 -0.7224331275 0.3077754485
Rb -1.3871505718 -0.0883000488 0.1231549079
8

O 0.2165993178 1.8378098065 -2.8525508231
H 0.9168205932 2.1983740969 -2.2910814214
H -0.5648592554 1.8730519424 -2.2799554834
O 0.8861536743 -0.7445893505 -3.4604077149
H 1.070715959 -0.9573357769 -4.3759523832
H 0.6216229684 0.1973322926 -3.4413968318
Br -1.4628210206 1.6838439673 0.0895770201
Rb 0.9103908223 -0.7604347981 -0.5986332299
