2

Rb -1.3000000000000007 0.0 0.0
I 4.530274046600001 0.0 0.0
2

Rb -2.4000000000000004 0.0 0.0
I 5.6302740466 0.0 0.0
2

Rb -1.9500000000000002 0.0 0.0
I 5.1802740466 0.0 0.0
2

Rb -0.49999999999999983 0.0 0.0
I 3.7302740466 0.0 0.0
2

Rb -0.1000000000000001 0.0 0.0
I 3.3302740466 0.0 0.0
2

Rb -2.6000000000000005 0.0 0.0
I 5.8302740466000005 0.0 0.0
2

Rb -0.35000000000000003 0.0 0.0
I 3.5802740466 0.0 0.0
2

Rb -1.7000000000000004 0.0 0.0
I 4.9302740466 0.0 0.0
2

Rb -2.1500000000000004 0.0 0.0
I 5.3802740466 0.0 0.0
2

Rb -1.9500000000000002 0.0 0.0
I 5.1802740466 0.0 0.0
2

Rb -0.8000000000000002 0.0 0.0
I 4.0302740466 0.0 0.0
2

Rb -0.7499999999999997 0.0 0.0
I 3.9802740465999995 0.0 0.0
2

Rb -1.5500000000000005 0.0 0.0
I 4.780274046600001 0.0 0.0
2

Rb -1.7000000000000004 0.0 0.0
I 4.9302740466 0.0 0.0
2

Rb 0.0499999999999997 0.0 0.0
I 3.1802740466 0.0 0.0
2

Rb -0.35000000000000003 0.0 0.0
I 3.5802740466 0.0 0.0
2

Rb -2.0 0.0 0.0
I 5.2302740466 0.0 0.0
2

Rb -1.4500000000000004 0.0 0.0
I 4.6802740466 0.0 0.0
2

Rb -2.25 0.0 0.0
I 5.4802740466 0.0 0.0
2

Rb -0.2999999999999996 0.0 0.0
I 3.5302740465999998 0.0 0.0
2

Rb -0.5499999999999995 0.0 0.0
I 3.7802740465999993 0.0 0.0
2

Rb -0.2000000000000002 0.0 0.0
I 3.4302740466 0.0 0.0
2

Rb -0.7000000000000001 0.0 0.0
I 3.9302740466 0.0 0.0
2

Rb -2.0 0.0 0.0
I 5.2302740466 0.0 0.0
2

Rb -0.7000000000000001 0.0 0.0
I 3.9302740466 0.0 0.0
2

Rb -0.7499999999999997 0.0 0.0
I 3.9802740465999995 0.0 0.0
2

Rb -1.75 0.0 0.0
I 4.9802740466 0.0 0.0
2

Rb -0.1000000000000001 0.0 0.0
I 3.3302740466 0.0 0.0
2

Rb -0.3999999999999997 0.0 0.0
I 3.6302740466 0.0 0.0
2

Rb -1.0999999999999996 0.0 0.0
I 4.3302740466 0.0 0.0
2

Rb 0.24999999999999992 0.0 0.0
I 2.9802740466 0.0 0.0
2

Rb -1.6500000000000006 0.0 0.0
I 4.8802740466 0.0 0.0
2

Rb -2.7 0.0 0.0
I 5.9302740466 0.0 0.0
2

Rb 0.0499999999999997 0.0 0.0
I 3.1802740466 0.0 0.0
2

Rb -1.4500000000000004 0.0 0.0
I 4.6802740466 0.0 0.0
2

Rb -0.3999999999999997 0.0 0.0
I 3.6302740466 0.0 0.0
2

Rb -2.1500000000000004 0.0 0.0
I 5.3802740466 0.0 0.0
2

Rb -1.1999999999999997 0.0 0.0
I 4.4302740466 0.0 0.0
2

Rb 0.1499999999999998 0.0 0.0
I 3.0802740466 0.0 0.0
2

Rb -0.5999999999999999 0.0 0.0
I 3.8302740466 0.0 0.0
2

Rb -1.7000000000000004 0.0 0.0
I 4.9302740466 0.0 0.0
2

Rb -2.6000000000000005 0.0 0.0
I 5.8302740466000005 0.0 0.0
2

Rb -0.24999999999999992 0.0 0.0
I 3.4802740466 0.0 0.0
2

Rb -0.24999999999999992 0.0 0.0
I 3.4802740466 0.0 0.0
2

Rb 0.0499999999999997 0.0 0.0
I 3.1802740466 0.0 0.0
2

Rb -2.4000000000000004 0.0 0.0
I 5.6302740466 0.0 0.0
2

Rb -1.3500000000000003 0.0 0.0
I 4.5802740466000005 0.0 0.0
2

Rb -0.9000000000000002 0.0 0.0
I 4.1302740466 0.0 0.0
2

Rb -2.1500000000000004 0.0 0.0
I 5.3802740466 0.0 0.0
2

Rb -0.35000000000000003 0.0 0.0
I 3.5802740466 0.0 0.0
5

O -0.1523912305 2.761735797 -1.4666761932
H -0.6429201594 3.4355615904 -1.9436174287
H -0.8058456863 2.0696898074 -1.2295679142
I -1.8730874233 0.1219530423 -0.0833225013
Rb 1.6022179346 -0.7602500224 -0.1197337138
5

O -1.0936842019 -1.4751460135 1.9717307999
H -0.3425260986 -1.058907971 2.4179032717
H -0.723078819 -2.0760320116 1.3080281501
I 2.3812590321 -0.1430417829 -0.117083325
Rb -1.3206370869 0.2538507845 -0.6559537929
5

O 0.344320827 -2.8102741164 -1.5992030779
H 0.0532885312 -3.2811066247 -2.3828234843
H -0.3396725544 -2.9778683924 -0.9251123176
I -2.4189131981 0.4156512947 0.4693476275
Rb 0.8356509066 0.080085466 -0.9874506733
5

O -2.9142482253 2.6363764281 1.141106723
H -3.1302305124 3.1580735014 1.9152507309
H -3.5006644038 1.8633518784 1.145590473
I 2.2784542636 0.2646012777 -0.3841862996
Rb -1.1686896622 1.1032887363 -0.5719994296
5

O -2.5475333874 -1.6877256055 0.422396122
H -3.1182512762 -2.4135963313 0.1625305927
H -1.7430826479 -2.093067546 0.8155230147
I 1.6342959074 0.1873748784 0.3392204065
Rb -1.5208979666 0.5837058091 -1.1774499892
5

O -0.1523912305 2.761735797 -1.4666761932
H -0.6429201594 3.4355615904 -1.9436174287
H -0.8058456863 2.0696898074 -1.2295679142
I -1.8730874233 0.1219530423 -0.0833225013
Rb 1.6022179346 -0.7602500224 -0.1197337138
5

O -4.1689311638 0.1932342181 -0.418857026
H -5.1042341289 0.133963895 -0.6167072185
H -4.0856329095 0.1687961248 0.5579615492
I 2.3812590321 -0.1430417829 -0.117083325
Rb -1.3206370869 0.2538507845 -0.6559537929
5

O -4.1689311638 0.1932342181 -0.418857026
H -5.1042341289 0.133963895 -0.6167072185
H -4.0856329095 0.1687961248 0.5579615492
I 2.3812590321 -0.1430417829 -0.117083325
Rb -1.3206370869 0.2538507845 -0.6559537929
5

O 3.7214668759 1.2873055189 1.3723078724
H 4.4814327016 1.8428358357 1.553156726
H 4.064599182 0.4978190899 0.9198411474
I -2.2320178959 0.0610778551 -0.3833719811
Rb 0.9246989547 1.0944034926 0.6530228609
5

O -0.8526333442 -2.3550543309 1.459316618
H -0.1096448759 -2.6804715651 0.9273187344
H -0.510776276 -1.5819150822 1.9517427818
I 2.4226506656 0.463268017 -0.0922289397
Rb -1.0821974273 0.2337361135 -0.6010297232
5

O 0.4385685366 2.0117251082 -1.5373784425
H 0.3281090335 2.5685708686 -0.7548758883
H -0.3375779022 1.4253499966 -1.5065138656
I -1.7947399085 -0.2009043662 0.0474111835
Rb 1.6794714288 -0.5540419259 -0.0312263495
5

O 2.3424146781 1.0612721882 2.1335742048
H 2.5716166845 1.1469328553 3.0610628592
H 1.5158228203 1.5966773659 1.9864049874
I -2.3015522507 0.2348652514 -0.0443112658
Rb 1.0240674438 -0.8524579183 0.2853636999
5

O 0.1584951234 -1.8700371481 -2.1066509495
H -0.2714719314 -2.294171424 -2.8533037758
H -0.5573636374 -1.4413892815 -1.5952663762
I -2.0152634821 -0.0667936831 -0.006581444
Rb 0.8094109597 1.9687145626 0.0105474875
5

O 0.0438587441 -0.6193629325 3.0842682379
H 0.4709177816 -0.6378202152 3.9440999586
H 0.6958886572 -0.2313223696 2.4609746652
I 1.8435593858 0.4337927791 0.3783697808
Rb -1.4986492897 0.2949435973 -0.8323894092
5

O 3.750489374 -1.4497120783 1.3086342017
H 4.5582192239 -1.8464906489 1.6366477384
H 3.9400354012 -0.4992354962 1.1701621334
I -2.2981009199 0.6198144165 -0.515731083
Rb 1.0713022995 -0.8034131299 0.5230956093
5

O 1.358414575 1.8004499094 2.9402823382
H 1.2077226708 2.2754236805 3.7584647004
H 1.080009576 0.875668086 3.0955603746
I -1.7678472438 -0.7461675503 0.1011809576
Rb 1.2377857591 1.1546584846 0.1817293569
5

O -0.8526333442 -2.3550543309 1.459316618
H -0.1096448759 -2.6804715651 0.9273187344
H -0.510776276 -1.5819150822 1.9517427818
I 2.4226506656 0.463268017 -0.0922289397
Rb -1.0821974273 0.2337361135 -0.6010297232
5

O -2.4201996853 0.5538100288 2.2005865191
H -2.8627715683 -0.2574815859 1.9083804753
H -1.6084229684 0.2636060755 2.6463807361
I 1.8435593858 0.4337927791 0.3783697808
Rb -1.4986492897 0.2949435973 -0.8323894092
5

O 0.846792033 1.9466110865 -1.9025698169
H 0.6615631644 2.6357997603 -2.5458668996
H -0.0367927401 1.6765148131 -1.5550044163
I -2.1334843829 1.1008710818 -0.4869393425
Rb -0.6089317148 -1.8800775343 0.5782826496
5

O 0.8955513383 -2.8953530681 -1.3095218525
H 0.5961386103 -3.3870512599 -0.5378881279
H 1.3894795721 -2.144215469 -0.9396787005
I 1.6342959074 0.1873748784 0.3392204065
Rb -1.5208979666 0.5837058091 -1.1774499892
5

O -1.8319012009 2.0576715868 -1.6903057071
H -1.8315428249 2.7300744034 -2.3741880852
H -1.1760804846 2.3368256527 -1.0109785198
I 2.5427299015 0.1096054671 -0.0488217062
Rb -0.7902863227 -0.6095773324 -0.8456821573
5

O -0.631689368 1.1090361527 2.86076438
H -1.3058152686 1.2571907174 3.5286513416
H -1.0988351135 0.7272707506 2.0918216388
I -1.9239641925 -0.0957348508 -0.1916152568
Rb 1.6031327518 -0.9127640996 -0.0775233145
5

O -4.1689311638 0.1932342181 -0.418857026
H -5.1042341289 0.133963895 -0.6167072185
H -4.0856329095 0.1687961248 0.5579615492
I 2.3812590321 -0.1430417829 -0.117083325
Rb -1.3206370869 0.2538507845 -0.6559537929
5

O 0.7332450303 -0.8583978026 2.7082342498
H 1.4279260855 -1.258595561 2.162109975
H -0.0911067185 -1.0318602306 2.2268518353
I -1.7678472438 -0.7461675503 0.1011809576
Rb 1.2377857591 1.1546584846 0.1817293569
5

O -0.2040151729 -2.522256606 1.5539643503
H -0.2431923561 -2.3582648976 2.50286787
H 0.406177785 -1.8276521241 1.2334601513
I 1.6342959074 0.1873748784 0.3392204065
Rb -1.5208979666 0.5837058091 -1.1774499892
5

O 1.358414575 1.8004499094 2.9402823382
H 1.2077226708 2.2754236805 3.7584647004
H 1.080009576 0.875668086 3.0955603746
I -1.7678472438 -0.7461675503 0.1011809576
Rb 1.2377857591 1.1546584846 0.1817293569
5

O 1.0577090193 -2.6615018146 -1.681839973
H 0.9271991245 -3.036288971 -2.5548403419
H 1.655691294 -1.9052642155 -1.8122870966
I -2.0121981764 0.9078951618 -0.6993311933
Rb -0.6245728846 -2.0487097571 0.6152701916
5

O -3.1133493122 -1.7320579096 0.6614326756
H -3.8314524717 -2.3670318131 0.6505960819
H -2.2908027822 -2.2367580637 0.8626613391
I 1.8435593858 0.4337927791 0.3783697808
Rb -1.4986492897 0.2949435973 -0.8323894092
5

O -0.1131530607 -2.5214265986 -0.4837903358
H 0.0407507898 -3.397197765 -0.8450273286
H 0.7524426062 -2.0679447521 -0.4905936306
I 2.3812590321 -0.1430417829 -0.117083325
Rb -1.3206370869 0.2538507845 -0.6559537929
5

O 0.344320827 -2.8102741164 -1.5992030779
H 0.0532885312 -3.2811066247 -2.3828234843
H -0.3396725544 -2.9778683924 -0.9251123176
I -2.4189131981 0.4156512947 0.4693476275
Rb 0.8356509066 0.080085466 -0.9874506733
5

O 0.7389191554 1.9080385303 1.9881121271
H -0.0693764654 1.8349452528 1.4546263951
H 1.3737513449 2.3951380355 1.4365489615
I -1.8344272158 1.1117413584 -0.3924190195
Rb -0.0409986428 -1.830138162 0.7752385464
5

O 3.2367066482 -0.7190007023 -1.6718804957
H 3.8566238447 -0.6662564469 -2.4030784587
H 2.6035341931 0.0300664535 -1.783903781
I -1.8344272158 1.1117413584 -0.3924190195
Rb -0.0409986428 -1.830138162 0.7752385464
5

O -0.1131530607 -2.5214265986 -0.4837903358
H 0.0407507898 -3.397197765 -0.8450273286
H 0.7524426062 -2.0679447521 -0.4905936306
I 2.3812590321 -0.1430417829 -0.117083325
Rb -1.3206370869 0.2538507845 -0.6559537929
5

O 1.926910515 -0.6977989852 0.984278757
H 2.1004254713 -0.5283870027 0.0383147573
H 1.4543443905 0.1031602431 1.2962480753
I -2.0121981764 0.9078951618 -0.6993311933
Rb -0.6245728846 -2.0487097571 0.6152701916
5

O 2.103245267 0.2746121508 -1.8500251729
H 1.5031053722 -0.4310258508 -2.1345897719
H 2.8199886806 -0.184481398 -1.3851561785
I -2.0152634821 -0.0667936831 -0.006581444
Rb 0.8094109597 1.9687145626 0.0105474875
5

O -2.9144980657 2.6430649693 0.1979457009
H -3.3126572207 3.4738860575 0.4599584356
H -2.8413329971 2.0984069865 1.0065339088
I 1.6342959074 0.1873748784 0.3392204065
Rb -1.5208979666 0.5837058091 -1.1774499892
5

O 2.7272639743 0.8174046282 1.9415703624
H 3.2855849045 1.1126543964 2.6617138353
H 2.0043084079 1.4731654871 1.8627048971
I -1.8730874233 0.1219530423 -0.0833225013
Rb 1.6022179346 -0.7602500224 -0.1197337138
5

O 2.3424146781 1.0612721882 2.1335742048
H 2.5716166845 1.1469328553 3.0610628592
H 1.5158228203 1.5966773659 1.9864049874
I -2.3015522507 0.2348652514 -0.0443112658
Rb 1.0240674438 -0.8524579183 0.2853636999
5

O -0.8990612662 -2.7512126584 1.1087558475
H -1.3922809495 -3.497499954 1.4540005087
H -1.5657512012 -2.0799143513 0.8703053378
I -2.3015522507 0.2348652514 -0.0443112658
Rb 1.0240674438 -0.8524579183 0.2853636999
5

O 1.358414575 1.8004499094 2.9402823382
H 1.2077226708 2.2754236805 3.7584647004
H 1.080009576 0.875668086 3.0955603746
I -1.7678472438 -0.7461675503 0.1011809576
Rb 1.2377857591 1.1546584846 0.1817293569
5

O 4.0253251062 -1.1740554503 0.0338100817
H 4.707813349 -1.8458576691 -0.0196621654
H 3.2785405743 -1.5584311116 0.5423611702
I -2.2320178959 0.0610778551 -0.3833719811
Rb 0.9246989547 1.0944034926 0.6530228609
5

O 2.3653682034 0.7650165956 0.4102744556
H 1.9992501546 1.6494816142 0.2624501899
H 1.8391541105 0.4081099774 1.1435218807
I -0.435352827 -0.6575631428 2.1049195408
Rb -0.1814221395 0.2852509166 -1.5235925985
5

O -4.1689311638 0.1932342181 -0.418857026
H -5.1042341289 0.133963895 -0.6167072185
H -4.0856329095 0.1687961248 0.5579615492
I 2.3812590321 -0.1430417829 -0.117083325
Rb -1.3206370869 0.2538507845 -0.6559537929
5

O -0.8924156256 0.1349294804 2.6602652381
H -1.4695840709 -0.1173315065 3.3846466239
H -1.4821279954 0.3442877081 1.9110647618
I -2.2981009199 0.6198144165 -0.515731083
Rb 1.0713022995 -0.8034131299 0.5230956093
5

O 2.047380531 -0.7067543169 0.710280054
H 1.9465921219 0.2253549417 0.969541911
H 2.1893376646 -0.6339043475 -0.2524605347
I -2.1334843829 1.1008710818 -0.4869393425
Rb -0.6089317148 -1.8800775343 0.5782826496
5

O 1.0130604538 -3.3244531023 0.3638046148
H 1.2452807068 -4.1166621451 0.8544218479
H 0.6087740935 -2.7134801949 1.009010344
I -0.435352827 -0.6575631428 2.1049195408
Rb -0.1814221395 0.2852509166 -1.5235925985
5

O 2.103245267 0.2746121508 -1.8500251729
H 1.5031053722 -0.4310258508 -2.1345897719
H 2.8199886806 -0.184481398 -1.3851561785
I -2.0152634821 -0.0667936831 -0.006581444
Rb 0.8094109597 1.9687145626 0.0105474875
5

O -0.1523912305 2.761735797 -1.4666761932
H -0.6429201594 3.4355615904 -1.9436174287
H -0.8058456863 2.0696898074 -1.2295679142
I -1.8730874233 0.1219530423 -0.0833225013
Rb 1.6022179346 -0.7602500224 -0.1197337138
5

O 2.0860631767 -1.702186727 2.3504791114
H 2.6394677889 -2.0190026186 3.0663060736
H 1.1988663206 -2.1190908853 2.4609523283
I -2.0809667898 -0.1443285223 -1.1749390009
Rb 1.0377222193 0.6395671816 0.7909287834
5

O 0.0438587441 -0.6193629325 3.0842682379
H 0.4709177816 -0.6378202152 3.9440999586
H 0.6958886572 -0.2313223696 2.4609746652
I 1.8435593858 0.4337927791 0.3783697808
Rb -1.4986492897 0.2949435973 -0.8323894092
8

O -1.0936842019 -1.4751460135 1.9717307999
H -0.3425260986 -1.058907971 2.4179032717
H -0.723078819 -2.0760320116 1.3080281501
O -4.1689311638 0.1932342181 -0.418857026
H -5.1042341289 0.133963895 -0.6167072185
H -4.0856329095 0.1687961248 0.5579615492
I 2.3812590321 -0.1430417829 -0.117083325
Rb -1.3206370869 0.2538507845 -0.6559537929
8

O 1.7615496358 1.536306865 -1.3148721698
H 1.3444296658 1.2067087547 -2.1229242295
H 1.1972694805 2.2661452652 -1.0153359981
O -0.1065519696 3.2430955898 0.0080849865
H -0.4800317501 4.1177044906 -0.1240102742
H -0.8408675723 2.6085422472 -0.1277022447
I -2.2981009199 0.6198144165 -0.515731083
Rb 1.0713022995 -0.8034131299 0.5230956093
8

O -0.1347594932 -1.5810838889 1.8578442487
H -0.5017163199 -2.0153661654 2.6317108844
H -0.8982134267 -1.3965876964 1.2685792519
O 2.1336407526 0.4087791036 -1.5979624482
H 2.9315558603 -0.0598386657 -1.3189195568
H 1.5806974068 -0.2609726683 -2.02788681
I -2.2551729646 -0.1837258959 -0.4342005149
Rb 0.7472793211 1.1677588081 0.7819190504
8

O 2.0330672807 1.1636702099 -2.1808644351
H 2.6716739361 1.5790136214 -2.7624191871
H 1.3036638605 1.802420376 -2.0826940274
O 2.7272639743 0.8174046282 1.9415703624
H 3.2855849045 1.1126543964 2.6617138353
H 2.0043084079 1.4731654871 1.8627048971
I -1.8730874233 0.1219530423 -0.0833225013
Rb 1.6022179346 -0.7602500224 -0.1197337138
8

O 0.8955513383 -2.8953530681 -1.3095218525
H 0.5961386103 -3.3870512599 -0.5378881279
H 1.3894795721 -2.144215469 -0.9396787005
O -2.9144980657 2.6430649693 0.1979457009
H -3.3126572207 3.4738860575 0.4599584356
H -2.8413329971 2.0984069865 1.0065339088
I 1.6342959074 0.1873748784 0.3392204065
Rb -1.5208979666 0.5837058091 -1.1774499892
8

O 2.0330672807 1.1636702099 -2.1808644351
H 2.6716739361 1.5790136214 -2.7624191871
H 1.3036638605 1.802420376 -2.0826940274
O 2.7272639743 0.8174046282 1.9415703624
H 3.2855849045 1.1126543964 2.6617138353
H 2.0043084079 1.4731654871 1.8627048971
I -1.8730874233 0.1219530423 -0.0833225013
Rb 1.6022179346 -0.7602500224 -0.1197337138
8

O 0.8008540289 -2.1611802774 1.2048983773
H 1.3762643116 -2.7040716702 1.7504107672
H 1.216349745 -1.271889801 1.2038380335
O 1.9157679751 1.4771301557 -2.4488701124
H 2.6792012978 1.7120866554 -2.9801524164
H 2.2687636879 1.2697367895 -1.5634130336
I 2.1466074209 1.046337032 1.0291739755
Rb -0.5932198816 1.5117436467 -1.0849869629
8

O 1.7652221373 -2.6524053361 0.0698470834
H 1.2668544806 -2.517448781 -0.7539078348
H 1.1340746142 -2.4344716692 0.7768282176
O 3.391448369 0.9241738321 1.8201573805
H 4.0143233369 1.0624556919 2.5350829828
H 3.7524740218 0.1946588876 1.2814453604
I -2.2551729646 -0.1837258959 -0.4342005149
Rb 0.7472793211 1.1677588081 0.7819190504
8

O -0.2114704699 2.6924251402 1.1865999305
H -0.6854300044 3.3081616342 1.7506141378
H -0.8355029345 1.9626050029 0.9952624566
O 2.8218320628 1.1094941892 -1.4797063228
H 3.4414230798 1.4127094172 -2.1456670897
H 1.979646302 1.5969264092 -1.6425399092
I -1.8122278568 -0.1037494586 -0.131656514
Rb 1.4828798628 -1.0548904681 -0.0645234909
8

O 1.7615496358 1.536306865 -1.3148721698
H 1.3444296658 1.2067087547 -2.1229242295
H 1.1972694805 2.2661452652 -1.0153359981
O -0.1065519696 3.2430955898 0.0080849865
H -0.4800317501 4.1177044906 -0.1240102742
H -0.8408675723 2.6085422472 -0.1277022447
I -2.2981009199 0.6198144165 -0.515731083
Rb 1.0713022995 -0.8034131299 0.5230956093
8

O 0.2641580731 1.5128498403 2.0022178512
H -0.4528237243 1.5322948559 1.3395900358
H 0.9042180909 2.1932831801 1.712209102
O 1.0663456729 1.9946170951 -1.832998164
H 0.9440573647 2.551724953 -2.6061144533
H 0.1606725916 1.7444565689 -1.5495713545
I -2.0067610413 0.9019414572 -0.571887209
Rb -0.689310927 -2.0320583955 0.8709512791
8

O 0.2813857726 -1.7438038553 -2.1872749275
H -0.0108388259 -2.195025432 -2.9829524425
H -0.5277460318 -1.3551854358 -1.7883049014
O -0.1347594932 -1.5810838889 1.8578442487
H -0.5017163199 -2.0153661654 2.6317108844
H -0.8982134267 -1.3965876964 1.2685792519
I -2.2551729646 -0.1837258959 -0.4342005149
Rb 0.7472793211 1.1677588081 0.7819190504
8

O 0.6387268351 0.806855785 -2.2210149035
H 0.3631095152 0.786721941 -3.1404600237
H -0.1814422627 0.853627874 -1.6922668128
O -2.3867276706 -2.3113216433 -0.5027672347
H -3.0756792473 -2.6436949219 0.077636227
H -2.2514805445 -1.3862971554 -0.2266965864
I -1.2908072909 0.8446656776 0.6526358696
Rb 1.6926908786 -0.9215435371 0.0259138796
8

O 1.8993613775 -0.549492703 1.1727570057
H 1.9972632995 -0.5044470853 0.2005010534
H 1.3165001037 0.1983488181 1.4261699349
O 0.2641580731 1.5128498403 2.0022178512
H -0.4528237243 1.5322948559 1.3395900358
H 0.9042180909 2.1932831801 1.712209102
I -2.0067610413 0.9019414572 -0.571887209
Rb -0.689310927 -2.0320583955 0.8709512791
8

O 0.6387268351 0.806855785 -2.2210149035
H 0.3631095152 0.786721941 -3.1404600237
H -0.1814422627 0.853627874 -1.6922668128
O -2.3867276706 -2.3113216433 -0.5027672347
H -3.0756792473 -2.6436949219 0.077636227
H -2.2514805445 -1.3862971554 -0.2266965864
I -1.2908072909 0.8446656776 0.6526358696
Rb 1.6926908786 -0.9215435371 0.0259138796
8

O 1.2818794278 -2.7718040814 -0.3933856163
H 1.9878687125 -3.422528644 -0.3667370103
H 1.7251775168 -1.8963633613 -0.3031685104
O -2.0133807927 1.9365737318 1.6278187887
H -2.1442973021 2.8590165941 1.8557046654
H -2.7322529424 1.4306511138 2.0669793079
I 2.4226506656 0.463268017 -0.0922289397
Rb -1.0821974273 0.2337361135 -0.6010297232
8

O -0.4585508325 3.4279737071 -0.2293658547
H -0.194014827 3.2276452097 -1.135127969
H -1.2437615411 2.8710077259 -0.1056827755
O 1.1875344523 1.9404799459 1.4504356772
H 0.6306339811 1.6761445604 2.1942618064
H 0.638878931 2.5368457909 0.9005834452
I -2.2460886205 0.3478869771 -0.1550673783
Rb 0.9605725827 -1.0249588244 0.750163635
8

O 0.1584951234 -1.8700371481 -2.1066509495
H -0.2714719314 -2.294171424 -2.8533037758
H -0.5573636374 -1.4413892815 -1.5952663762
O 0.1501894825 -1.8817133815 2.0934530576
H -0.2846914254 -2.3110476614 2.8342808377
H -0.5623285041 -1.4486800172 1.5810947975
I -2.0152634821 -0.0667936831 -0.006581444
Rb 0.8094109597 1.9687145626 0.0105474875
8

O -0.8924156256 0.1349294804 2.6602652381
H -1.4695840709 -0.1173315065 3.3846466239
H -1.4821279954 0.3442877081 1.9110647618
O -0.1065519696 3.2430955898 0.0080849865
H -0.4800317501 4.1177044906 -0.1240102742
H -0.8408675723 2.6085422472 -0.1277022447
I -2.2981009199 0.6198144165 -0.515731083
Rb 1.0713022995 -0.8034131299 0.5230956093
8

O 0.1501894825 -1.8817133815 2.0934530576
H -0.2846914254 -2.3110476614 2.8342808377
H -0.5623285041 -1.4486800172 1.5810947975
O 2.0983713883 0.2611563062 1.8623480637
H 1.4965771228 -0.4459761022 2.1396349585
H 2.8159120435 -0.1952970077 1.3960650648
I -2.0152634821 -0.0667936831 -0.006581444
Rb 0.8094109597 1.9687145626 0.0105474875
8

O 0.8955513383 -2.8953530681 -1.3095218525
H 0.5961386103 -3.3870512599 -0.5378881279
H 1.3894795721 -2.144215469 -0.9396787005
O -2.9144980657 2.6430649693 0.1979457009
H -3.3126572207 3.4738860575 0.4599584356
H -2.8413329971 2.0984069865 1.0065339088
I 1.6342959074 0.1873748784 0.3392204065
Rb -1.5208979666 0.5837058091 -1.1774499892
8

O 2.5656246858 -1.7663250943 -1.5628196098
H 3.3229484609 -1.8520298672 -0.9688505459
H 2.71974185 -0.9476127383 -2.0552601014
O 2.652532773 0.9926063223 -2.4436661742
H 3.1160660573 1.4391029627 -3.155645597
H 1.7013855421 1.1956777148 -2.5615547019
I -2.2460886205 0.3478869771 -0.1550673783
Rb 0.9605725827 -1.0249588244 0.750163635
8

O 0.2641580731 1.5128498403 2.0022178512
H -0.4528237243 1.5322948559 1.3395900358
H 0.9042180909 2.1932831801 1.712209102
O 2.3311713795 -0.4824892453 -1.5930433099
H 1.9158653699 0.3564051442 -1.8637996927
H 3.2959335231 -0.3333421955 -1.5990982066
I -2.0067610413 0.9019414572 -0.571887209
Rb -0.689310927 -2.0320583955 0.8709512791
8

O -2.5275184637 -4.0225383471 -0.6814279499
H -2.9614141327 -4.8619739048 -0.8454857066
H -3.0590961526 -3.3243914508 -1.1372152299
O -3.2231779199 2.009411084 -0.094235572
H -3.7143202739 2.7067401685 0.3432686441
H -3.5480948901 1.172116412 0.2836862606
I 2.1466074209 1.046337032 1.0291739755
Rb -0.5932198816 1.5117436467 -1.0849869629
8

O -1.8271230879 -2.2000161662 1.1920104554
H -2.5747451787 -2.7857368497 1.3261864764
H -1.3931728461 -2.4941112251 0.3537688142
O 0.6192398717 -1.7445918152 2.5820957807
H -0.2109292606 -2.1466070163 2.2851221673
H 1.277349385 -1.9804294294 1.9073158432
I 1.0557912602 0.3802381072 -1.4855788225
Rb -1.0986928944 0.6754203835 1.326017308
8

O -0.4367325594 -2.5970840385 2.2738596143
H -0.5989186577 -2.9483298336 1.3835678065
H -0.997696352 -1.8081235558 2.3514842329
O -1.6520217583 -0.0196209224 2.2452578344
H -2.3435605374 0.2788694185 2.841074583
H -2.0454151559 -0.0063111174 1.3503510931
I -2.0809667898 -0.1443285223 -1.1749390009
Rb 1.0377222193 0.6395671816 0.7909287834
8

O 0.2641580731 1.5128498403 2.0022178512
H -0.4528237243 1.5322948559 1.3395900358
H 0.9042180909 2.1932831801 1.712209102
O -0.7756637077 -0.6492831521 3.4501099239
H -1.4997772423 -0.4317495257 4.0405012065
H -0.3956055858 0.2049399018 3.1830606934
I -2.0067610413 0.9019414572 -0.571887209
Rb -0.689310927 -2.0320583955 0.8709512791
8

O 0.3917554113 2.2644029219 -1.6443340852
H 0.2256376514 2.7276368094 -0.8100012363
H -0.3157755208 1.5978811589 -1.6625287045
O 2.8218320628 1.1094941892 -1.4797063228
H 3.4414230798 1.4127094172 -2.1456670897
H 1.979646302 1.5969264092 -1.6425399092
I -1.8122278568 -0.1037494586 -0.131656514
Rb 1.4828798628 -1.0548904681 -0.0645234909
8

O 1.9271676416 1.2377204704 2.1587762349
H 2.1158799374 1.2799476932 3.0975940252
H 1.1714329341 1.8359473553 2.0103909816
O 2.7751558533 0.8039948324 -2.2558955455
H 3.2579442975 1.052809353 -3.0449253079
H 2.0026633281 1.398205538 -2.1977893668
I -1.7947399085 -0.2009043662 0.0474111835
Rb 1.6794714288 -0.5540419259 -0.0312263495
8

O 0.6298211186 2.7882434411 -0.7836188185
H 0.5532009254 2.3530568561 -1.642778036
H -0.2183989917 2.5911786765 -0.3575834609
O -0.1023412474 0.6463685848 -2.6838536288
H -0.3634847238 0.5993005426 -3.6064295615
H -0.9277304913 0.6174653138 -2.1662570225
I -2.0900806107 0.6578567042 0.2015882335
Rb 1.3855166135 -0.6335628171 -0.3829712069
8

O 2.578250148 1.9551529158 1.0547256431
H 1.9868799645 1.6067957649 1.7374975915
H 1.9928724589 2.4127583988 0.4241773331
O -0.6775344501 -2.5609450461 0.0837690879
H -1.1873025568 -3.3700661723 0.1548778243
H -1.3198431164 -1.8365007179 0.1856091025
I -2.0900806107 0.6578567042 0.2015882335
Rb 1.3855166135 -0.6335628171 -0.3829712069
8

O -0.4367325594 -2.5970840385 2.2738596143
H -0.5989186577 -2.9483298336 1.3835678065
H -0.997696352 -1.8081235558 2.3514842329
O -1.6520217583 -0.0196209224 2.2452578344
H -2.3435605374 0.2788694185 2.841074583
H -2.0454151559 -0.0063111174 1.3503510931
I -2.0809667898 -0.1443285223 -1.1749390009
Rb 1.0377222193 0.6395671816 0.7909287834
8

O 0.50890676 2.3195935391 1.400454298
H 0.4566994382 2.7590766166 0.540910877
H -0.2863999874 1.7626866222 1.4129514394
O -0.2046329845 -2.9708423559 0.0485652407
H -0.5986094532 -3.8448010456 0.0685442215
H -0.9473945899 -2.3433543001 0.0084537463
I -1.8730874233 0.1219530423 -0.0833225013
Rb 1.6022179346 -0.7602500224 -0.1197337138
8

O -0.2046329845 -2.9708423559 0.0485652407
H -0.5986094532 -3.8448010456 0.0685442215
H -0.9473945899 -2.3433543001 0.0084537463
O 2.0330672807 1.1636702099 -2.1808644351
H 2.6716739361 1.5790136214 -2.7624191871
H 1.3036638605 1.802420376 -2.0826940274
I -1.8730874233 0.1219530423 -0.0833225013
Rb 1.6022179346 -0.7602500224 -0.1197337138
8

O 1.9271676416 1.2377204704 2.1587762349
H 2.1158799374 1.2799476932 3.0975940252
H 1.1714329341 1.8359473553 2.0103909816
O 2.7751558533 0.8039948324 -2.2558955455
H 3.2579442975 1.052809353 -3.0449253079
H 2.0026633281 1.398205538 -2.1977893668
I -1.7947399085 -0.2009043662 0.0474111835
Rb 1.6794714288 -0.5540419259 -0.0312263495
8

O 0.2641580731 1.5128498403 2.0022178512
H -0.4528237243 1.5322948559 1.3395900358
H 0.9042180909 2.1932831801 1.712209102
O -0.7756637077 -0.6492831521 3.4501099239
H -1.4997772423 -0.4317495257 4.0405012065
H -0.3956055858 0.2049399018 3.1830606934
I -2.0067610413 0.9019414572 -0.571887209
Rb -0.689310927 -2.0320583955 0.8709512791
8

O -0.1347594932 -1.5810838889 1.8578442487
H -0.5017163199 -2.0153661654 2.6317108844
H -0.8982134267 -1.3965876964 1.2685792519
O 3.391448369 0.9241738321 1.8201573805
H 4.0143233369 1.0624556919 2.5350829828
H 3.7524740218 0.1946588876 1.2814453604
I -2.2551729646 -0.1837258959 -0.4342005149
Rb 0.7472793211 1.1677588081 0.7819190504
8

O -3.2336796028 -1.5734328054 0.6157926859
H -3.8029352579 -2.2430904561 0.2316644843
H -2.4008008921 -2.0297307152 0.8935109007
O -3.8211460995 0.1917254182 2.652807465
H -3.6053390584 -0.2092927621 3.4979958701
H -3.741801495 -0.5204600363 1.9878636077
I 2.4226506656 0.463268017 -0.0922289397
Rb -1.0821974273 0.2337361135 -0.6010297232
8

O -0.2040151729 -2.522256606 1.5539643503
H -0.2431923561 -2.3582648976 2.50286787
H 0.406177785 -1.8276521241 1.2334601513
O -0.1087275105 -0.0307445924 3.3758997817
H 0.2184015536 0.3583113276 4.1905038645
H 0.5488800996 0.1905210627 2.690071113
I 1.6342959074 0.1873748784 0.3392204065
Rb -1.5208979666 0.5837058091 -1.1774499892
8

O -1.1513284941 1.9946146735 1.830537735
H -1.0131381681 2.941028491 1.9062618326
H -0.40319717 1.5752468086 2.296987688
O 0.889471045 0.4243985492 2.8903142783
H 1.4552968969 0.4915008763 3.6632033786
H 1.4863720747 0.3059579588 2.1190736549
I 2.3812590321 -0.1430417829 -0.117083325
Rb -1.3206370869 0.2538507845 -0.6559537929
8

O 2.1209219413 -2.7647913964 -2.2299520581
H 1.8220246524 -3.5035163966 -2.762701137
H 2.0876205111 -1.9768457265 -2.7976477674
O -0.6884807253 3.0835798561 -0.8006772097
H -1.3572601358 3.7718678211 -0.8526000044
H -1.1655378255 2.272192497 -0.52692689
I -1.9239641925 -0.0957348508 -0.1916152568
Rb 1.6031327518 -0.9127640996 -0.0775233145
8

O 1.2818794278 -2.7718040814 -0.3933856163
H 1.9878687125 -3.422528644 -0.3667370103
H 1.7251775168 -1.8963633613 -0.3031685104
O -0.8526333442 -2.3550543309 1.459316618
H -0.1096448759 -2.6804715651 0.9273187344
H -0.510776276 -1.5819150822 1.9517427818
I 2.4226506656 0.463268017 -0.0922289397
Rb -1.0821974273 0.2337361135 -0.6010297232
8

O -0.2040151729 -2.522256606 1.5539643503
H -0.2431923561 -2.3582648976 2.50286787
H 0.406177785 -1.8276521241 1.2334601513
O -0.1087275105 -0.0307445924 3.3758997817
H 0.2184015536 0.3583113276 4.1905038645
H 0.5488800996 0.1905210627 2.690071113
I 1.6342959074 0.1873748784 0.3392204065
Rb -1.5208979666 0.5837058091 -1.1774499892
8

O 0.1584951234 -1.8700371481 -2.1066509495
H -0.2714719314 -2.294171424 -2.8533037758
H -0.5573636374 -1.4413892815 -1.5952663762
O 0.1501894825 -1.8817133815 2.0934530576
H -0.2846914254 -2.3110476614 2.8342808377
H -0.5623285041 -1.4486800172 1.5810947975
I -2.0152634821 -0.0667936831 -0.006581444
Rb 0.8094109597 1.9687145626 0.0105474875
8

O 1.2818794278 -2.7718040814 -0.3933856163
H 1.9878687125 -3.422528644 -0.3667370103
H 1.7251775168 -1.8963633613 -0.3031685104
O 0.0224217577 0.0535772307 2.4440815205
H -0.5078959318 0.8596548663 2.3698883049
H 0.8407584925 0.2295062415 1.9446505221
I 2.4226506656 0.463268017 -0.0922289397
Rb -1.0821974273 0.2337361135 -0.6010297232
8

O 1.9157679751 1.4771301557 -2.4488701124
H 2.6792012978 1.7120866554 -2.9801524164
H 2.2687636879 1.2697367895 -1.5634130336
O -2.0361947979 -2.2795716932 1.5165587554
H -2.1805648654 -3.0267974356 0.9149850707
H -1.0738745072 -2.1507218584 1.547375197
I 2.1466074209 1.046337032 1.0291739755
Rb -0.5932198816 1.5117436467 -1.0849869629
8

O -0.2114704699 2.6924251402 1.1865999305
H -0.6854300044 3.3081616342 1.7506141378
H -0.8355029345 1.9626050029 0.9952624566
O 2.8218320628 1.1094941892 -1.4797063228
H 3.4414230798 1.4127094172 -2.1456670897
H 1.979646302 1.5969264092 -1.6425399092
I -1.8122278568 -0.1037494586 -0.131656514
Rb 1.4828798628 -1.0548904681 -0.0645234909
8

O 1.8993613775 -0.549492703 1.1727570057
H 1.9972632995 -0.5044470853 0.2005010534
H 1.3165001037 0.1983488181 1.4261699349
O 0.2641580731 1.5128498403 2.0022178512
H -0.4528237243 1.5322948559 1.3395900358
H 0.9042180909 2.1932831801 1.712209102
I -2.0067610413 0.9019414572 -0.571887209
Rb -0.689310927 -2.0320583955 0.8709512791
8

O -0.8526333442 -2.3550543309 1.459316618
H -0.1096448759 -2.6804715651 0.9273187344
H -0.510776276 -1.5819150822 1.9517427818
O 0.0224217577 0.0535772307 2.4440815205
H -0.5078959318 0.8596548663 2.3698883049
H 0.8407584925 0.2295062415 1.9446505221
I 2.4226506656 0.463268017 -0.0922289397
Rb -1.0821974273 0.2337361135 -0.6010297232
8

O -0.1399574212 -1.7768250472 -2.4553525587
H -0.478015011 -1.9898948087 -3.3286614486
H -0.8254163046 -1.2122420395 -2.0380795757
O -0.3003198252 -2.874515244 0.2127118594
H -0.1670984063 -2.8560219595 -0.7469873874
H -1.0406932856 -2.2538123239 0.3361801484
I -2.2320178959 0.0610778551 -0.3833719811
Rb 0.9246989547 1.0944034926 0.6530228609
